template4cra_ligand
     RDKit          3D

 63 67  0  0  0  0  0  0  0  0999 V2000
   -1.0381   -1.5649    0.8161 C   0  0  0  0  0  0  0  0  0  0  0  0
   -0.1291   -2.3199    0.5121 O   0  0  0  0  0  0  0  0  0  0  0  0
   -1.9151   -1.8869    1.9741 C   0  0  0  0  0  0  0  0  0  0  0  0
   -3.1161   -1.1739    2.1631 C   0  0  0  0  0  0  0  0  0  0  0  0
   -3.9701   -1.4609    3.2001 C   0  0  0  0  0  0  0  0  0  0  0  0
   -3.6571   -2.4869    4.1011 C   0  0  0  0  0  0  0  0  0  0  0  0
   -2.4571   -3.2299    3.9111 C   0  0  0  0  0  0  0  0  0  0  0  0
   -1.5931   -2.9309    2.8461 C   0  0  0  0  0  0  0  0  0  0  0  0
   -2.1421   -4.3259    4.8441 C   0  0  0  0  0  0  0  0  0  0  0  0
   -3.0441   -4.6259    5.8381 C   0  0  0  0  0  0  0  0  0  0  0  0
   -4.2411   -3.8699    5.9721 C   0  0  0  0  0  0  0  0  0  0  0  0
   -5.0381   -4.1479    6.8671 O   0  0  0  0  0  0  0  0  0  0  0  0
   -4.5121   -2.8259    5.1421 N   0  0  0  0  0  0  0  0  0  0  0  0
   -0.9751   -5.0079    4.6921 O   0  0  0  0  0  0  0  0  0  0  0  0
   -1.3091   -0.4729    0.0661 N   0  0  0  0  0  0  0  0  0  0  0  0
   -0.5561   -0.1119   -1.1349 C   0  0  0  0  0  0  0  0  0  0  0  0
    0.2699    1.1231   -0.9559 C   0  0  0  0  0  0  0  0  0  0  0  0
    0.1029    1.8231    0.0191 O   0  0  0  0  0  0  0  0  0  0  0  0
   -1.6151    0.2871   -2.1759 C   0  0  0  0  0  0  0  0  0  0  0  0
   -2.5331   -0.8329   -2.6309 C   0  0  0  0  0  0  0  0  0  0  0  0
   -3.9061   -0.6939   -2.4559 C   0  0  0  0  0  0  0  0  0  0  0  0
   -2.0171   -1.9709   -3.2629 C   0  0  0  0  0  0  0  0  0  0  0  0
   -4.7651   -1.7069   -2.8759 C   0  0  0  0  0  0  0  0  0  0  0  0
   -2.8721   -2.9869   -3.6909 C   0  0  0  0  0  0  0  0  0  0  0  0
   -4.2461   -2.8449   -3.4939 C   0  0  0  0  0  0  0  0  0  0  0  0
    5.6549    3.1561   -1.1949 C   0  0  0  0  0  0  0  0  0  0  0  0
    6.1119    1.8161   -1.1259 C   0  0  0  0  0  0  0  0  0  0  0  0
    5.2149    0.7921   -1.2889 C   0  0  0  0  0  0  0  0  0  0  0  0
    3.8619    1.0711   -1.5299 C   0  0  0  0  0  0  0  0  0  0  0  0
    3.4019    2.3651   -1.6179 C   0  0  0  0  0  0  0  0  0  0  0  0
    4.2819    3.4451   -1.4439 C   0  0  0  0  0  0  0  0  0  0  0  0
    6.5019    4.1681   -1.0359 N   0  0  0  0  0  0  0  0  0  0  0  0
    6.1109    5.4261   -1.0919 C   0  0  0  0  0  0  0  0  0  0  0  0
    4.7719    5.7991   -1.3439 C   0  0  0  0  0  0  0  0  0  0  0  0
    7.0919    6.3891   -0.9009 N   0  0  0  0  0  0  0  0  0  0  0  0
    3.8409    4.8051   -1.5159 C   0  0  0  0  0  0  0  0  0  0  0  0
    1.9509    2.6691   -1.8529 C   0  0  0  0  0  0  0  0  0  0  0  0
    1.1389    1.4581   -1.9359 N   0  0  0  0  0  0  0  0  0  0  0  0
   -3.3725   -0.3787    1.4725 H   0  0  0  0  0  0  0  0  0  0  0  0
   -4.8859   -0.8937    3.3212 H   0  0  0  0  0  0  0  0  0  0  0  0
   -0.6846   -3.5042    2.7012 H   0  0  0  0  0  0  0  0  0  0  0  0
   -2.8408   -5.4458    6.5254 H   0  0  0  0  0  0  0  0  0  0  0  0
   -5.3450   -2.2911    5.2848 H   0  0  0  0  0  0  0  0  0  0  0  0
   -0.4541   -4.9217    5.4818 H   0  0  0  0  0  0  0  0  0  0  0  0
   -2.0643    0.1192    0.3474 H   0  0  0  0  0  0  0  0  0  0  0  0
    0.0663   -0.9544   -1.4707 H   0  0  0  0  0  0  0  0  0  0  0  0
   -1.0913    0.6775   -3.0609 H   0  0  0  0  0  0  0  0  0  0  0  0
   -2.2387    1.0810   -1.7390 H   0  0  0  0  0  0  0  0  0  0  0  0
   -4.3068    0.2010   -1.9936 H   0  0  0  0  0  0  0  0  0  0  0  0
   -0.9485   -2.0629   -3.4203 H   0  0  0  0  0  0  0  0  0  0  0  0
   -5.8340   -1.6112   -2.7230 H   0  0  0  0  0  0  0  0  0  0  0  0
   -2.4745   -3.8743   -4.1699 H   0  0  0  0  0  0  0  0  0  0  0  0
   -4.9183   -3.6282   -3.8250 H   0  0  0  0  0  0  0  0  0  0  0  0
    7.1595    1.6032   -0.9462 H   0  0  0  0  0  0  0  0  0  0  0  0
    5.5526   -0.2363   -1.2313 H   0  0  0  0  0  0  0  0  0  0  0  0
    3.1639    0.2504   -1.6494 H   0  0  0  0  0  0  0  0  0  0  0  0
    4.4869    6.8435   -1.4000 H   0  0  0  0  0  0  0  0  0  0  0  0
    6.8456    7.3887   -0.9336 H   0  0  0  0  0  0  0  0  0  0  0  0
    8.0662    6.1042   -0.7264 H   0  0  0  0  0  0  0  0  0  0  0  0
    2.7998    5.0436   -1.7013 H   0  0  0  0  0  0  0  0  0  0  0  0
    1.8541    3.2256   -2.7968 H   0  0  0  0  0  0  0  0  0  0  0  0
    1.5798    3.2879   -1.0226 H   0  0  0  0  0  0  0  0  0  0  0  0
    1.2276    0.8636   -2.7351 H   0  0  0  0  0  0  0  0  0  0  0  0
  1  2  2  0
  1  3  1  0
  1 15  1  0
  3  4  2  0
  3  8  1  0
  4  5  1  0
  4 39  1  0
  5  6  2  0
  5 40  1  0
  6  7  1  0
  6 13  1  0
  7  8  2  0
  7  9  1  0
  8 41  1  0
  9 10  2  0
  9 14  1  0
 10 11  1  0
 10 42  1  0
 11 12  2  0
 11 13  1  0
 13 43  1  0
 14 44  1  0
 15 16  1  0
 15 45  1  0
 16 17  1  0
 16 19  1  0
 16 46  1  0
 17 18  2  0
 17 38  1  0
 19 20  1  0
 19 47  1  0
 19 48  1  0
 20 21  2  0
 20 22  1  0
 21 23  1  0
 21 49  1  0
 22 24  2  0
 22 50  1  0
 23 25  2  0
 23 51  1  0
 24 25  1  0
 24 52  1  0
 25 53  1  0
 26 27  2  0
 26 31  1  0
 26 32  1  0
 27 28  1  0
 27 54  1  0
 28 29  2  0
 28 55  1  0
 29 30  1  0
 29 56  1  0
 30 31  2  0
 30 37  1  0
 31 36  1  0
 32 33  2  0
 33 34  1  0
 33 35  1  0
 34 36  2  0
 34 57  1  0
 35 58  1  0
 35 59  1  0
 36 60  1  0
 37 38  1  0
 37 61  1  0
 37 62  1  0
 38 63  1  0
M  END
>  <template_idx>  (1) 
4cra_ligand

>  <smiles>  (1) 
Nc1ccc2c(CNC(=O)C(Cc3ccccc3)NC(=O)c3ccc4[nH]c(=O)cc(O)c4c3)cccc2n1

$$$$
sample0
     RDKit          3D

 63 67  0  0  0  0  0  0  0  0999 V2000
   -0.9606   -1.5782    1.0544 C   0  0  0  0  0  0  0  0  0  0  0  0
   -0.1073   -2.1051    1.0690 H   0  0  0  0  0  0  0  0  0  0  0  0
   -1.9999   -2.1118    1.8674 C   0  0  0  0  0  0  0  0  0  0  0  0
   -3.3548   -1.8552    1.7267 C   0  0  0  0  0  0  0  0  0  0  0  0
   -4.3245   -2.3125    2.5785 C   0  0  0  0  0  0  0  0  0  0  0  0
   -4.0260   -3.0292    3.7297 C   0  0  0  0  0  0  0  0  0  0  0  0
   -2.7124   -3.3615    3.9168 C   0  0  0  0  0  0  0  0  0  0  0  0
   -1.6668   -3.0267    2.9391 C   0  0  0  0  0  0  0  0  0  0  0  0
   -2.3856   -4.0941    5.0736 C   0  0  0  0  0  0  0  0  0  0  0  0
   -3.3342   -4.3891    6.0265 C   0  0  0  0  0  0  0  0  0  0  0  0
   -4.6618   -4.0257    5.8583 C   0  0  0  0  0  0  0  0  0  0  0  0
   -5.3700   -4.2465    6.6166 H   0  0  0  0  0  0  0  0  0  0  0  0
   -4.9993   -3.3658    4.6903 C   0  0  0  0  0  0  0  0  0  0  0  0
   -1.1367   -4.3833    5.2572 O   0  0  0  0  0  0  0  0  0  0  0  0
   -0.9908   -0.4538    0.4457 N   0  0  0  0  0  0  0  0  0  0  0  0
   -0.3571   -0.1367   -0.8042 C   0  0  0  0  0  0  0  0  0  0  0  0
    0.4324    1.1029   -0.7174 C   0  0  0  0  0  0  0  0  0  0  0  0
    0.2545    1.8692    0.2129 O   0  0  0  0  0  0  0  0  0  0  0  0
   -1.4324    0.0972   -1.9848 C   0  0  0  0  0  0  0  0  0  0  0  0
   -2.5378   -0.8838   -2.3308 C   0  0  0  0  0  0  0  0  0  0  0  0
   -3.9174   -0.5526   -2.3196 C   0  0  0  0  0  0  0  0  0  0  0  0
   -2.3137   -2.1596   -2.8600 C   0  0  0  0  0  0  0  0  0  0  0  0
   -4.9618   -1.3559   -2.8226 C   0  0  0  0  0  0  0  0  0  0  0  0
   -3.3280   -3.0177   -3.3616 C   0  0  0  0  0  0  0  0  0  0  0  0
   -4.6755   -2.6136   -3.3669 C   0  0  0  0  0  0  0  0  0  0  0  0
    5.7704    3.2850   -1.5192 C   0  0  0  0  0  0  0  0  0  0  0  0
    6.6480    4.1718   -1.3322 C   0  0  0  0  0  0  0  0  0  0  0  0
    5.6072    1.1155   -1.6492 C   0  0  0  0  0  0  0  0  0  0  0  0
    4.2661    1.1445   -1.7285 C   0  0  0  0  0  0  0  0  0  0  0  0
    3.6281    2.3987   -1.7086 C   0  0  0  0  0  0  0  0  0  0  0  0
    4.4407    3.5172   -1.6168 C   0  0  0  0  0  0  0  0  0  0  0  0
    6.3283    2.1168   -1.5984 N   0  0  0  0  0  0  0  0  0  0  0  0
    6.2748    5.4662   -1.2260 C   0  0  0  0  0  0  0  0  0  0  0  0
    4.9764    5.7860   -1.4021 C   0  0  0  0  0  0  0  0  0  0  0  0
    7.1464    6.3807   -0.8905 N   0  0  0  0  0  0  0  0  0  0  0  0
    4.0171    4.8646   -1.6213 C   0  0  0  0  0  0  0  0  0  0  0  0
    2.1210    2.5500   -1.7296 C   0  0  0  0  0  0  0  0  0  0  0  0
    1.3375    1.3202   -1.7250 N   0  0  0  0  0  0  0  0  0  0  0  0
   -3.6073   -1.1701    0.8337 H   0  0  0  0  0  0  0  0  0  0  0  0
   -5.3224   -2.1046    2.3918 H   0  0  0  0  0  0  0  0  0  0  0  0
   -0.5498   -3.4783    3.0158 O   0  0  0  0  0  0  0  0  0  0  0  0
   -3.0315   -4.8430    6.9696 H   0  0  0  0  0  0  0  0  0  0  0  0
   -6.0268   -3.0875    4.5584 H   0  0  0  0  0  0  0  0  0  0  0  0
   -0.6474   -4.3679    4.6475 H   0  0  0  0  0  0  0  0  0  0  0  0
   -1.0946    0.3537    0.9335 H   0  0  0  0  0  0  0  0  0  0  0  0
    0.3122   -1.0175   -1.0393 H   0  0  0  0  0  0  0  0  0  0  0  0
   -0.8446    0.1278   -2.9040 H   0  0  0  0  0  0  0  0  0  0  0  0
   -1.9305    1.0056   -1.6880 H   0  0  0  0  0  0  0  0  0  0  0  0
   -4.2760    0.5609   -1.7868 F   0  0  0  0  0  0  0  0  0  0  0  0
   -1.0606   -2.5778   -2.9222 F   0  0  0  0  0  0  0  0  0  0  0  0
   -5.9911   -1.0236   -2.8353 H   0  0  0  0  0  0  0  0  0  0  0  0
   -3.0951   -3.9929   -3.7902 H   0  0  0  0  0  0  0  0  0  0  0  0
   -5.4596   -3.2262   -3.8151 H   0  0  0  0  0  0  0  0  0  0  0  0
    7.7665    3.9527   -1.2659 H   0  0  0  0  0  0  0  0  0  0  0  0
    6.1399    0.1189   -1.6054 H   0  0  0  0  0  0  0  0  0  0  0  0
    3.6057    0.1597   -1.7720 H   0  0  0  0  0  0  0  0  0  0  0  0
    4.6396    6.8516   -1.3480 H   0  0  0  0  0  0  0  0  0  0  0  0
    6.7803    7.2983   -0.7479 H   0  0  0  0  0  0  0  0  0  0  0  0
    8.0768    6.1725   -0.7755 H   0  0  0  0  0  0  0  0  0  0  0  0
    2.9588    5.1493   -1.7168 H   0  0  0  0  0  0  0  0  0  0  0  0
    1.8584    3.0767   -2.6404 H   0  0  0  0  0  0  0  0  0  0  0  0
    1.8332    3.1781   -0.9024 H   0  0  0  0  0  0  0  0  0  0  0  0
    1.2714    0.7554   -2.5426 H   0  0  0  0  0  0  0  0  0  0  0  0
  1  2  1  0
  1  3  2  3
  1 15  1  0
  3  4  1  0
  3  8  1  0
  4  5  2  0
  4 39  1  0
  5  6  1  0
  5 40  1  0
  6  7  2  0
  6 13  1  0
  7  8  1  0
  7  9  1  0
  8 41  2  0
  9 10  2  0
  9 14  1  0
 10 11  1  0
 10 42  1  0
 11 12  1  0
 11 13  2  0
 13 43  1  0
 14 44  1  0
 15 16  1  0
 15 45  1  0
 16 17  1  0
 16 19  1  0
 16 46  1  0
 17 18  2  0
 17 38  1  0
 19 20  1  0
 19 47  1  0
 19 48  1  0
 20 21  2  0
 20 22  1  0
 21 23  1  0
 21 49  1  0
 22 24  2  0
 22 50  1  0
 23 25  2  0
 23 51  1  0
 24 25  1  0
 24 52  1  0
 25 53  1  0
 26 27  2  0
 26 31  1  0
 26 32  1  0
 27 33  1  0
 27 54  1  0
 28 29  1  0
 28 32  2  0
 28 55  1  0
 29 30  2  0
 29 56  1  0
 30 31  1  0
 30 37  1  0
 31 36  2  0
 33 34  2  0
 33 35  1  0
 34 36  1  0
 34 57  1  0
 35 58  1  0
 35 59  1  0
 36 60  1  0
 37 38  1  0
 37 61  1  0
 37 62  1  0
 38 63  1  0
M  END
>  <template_idx>  (2) 
4cra_ligand

>  <smiles>  (2) 
Nc1ccc2c(CNC(=O)C(Cc3c(F)cccc3F)NC=C3C=Cc4cccc(O)c4C3=O)ccnc2c1

>  <qed>  (2) 
0.20939235459027758

$$$$
sample1
     RDKit          3D

 63 67  0  0  0  0  0  0  0  0999 V2000
   -0.2748   -1.9802    0.6623 C   0  0  0  0  0  0  0  0  0  0  0  0
    0.4521   -2.5339    0.1078 H   0  0  0  0  0  0  0  0  0  0  0  0
   -2.0725   -2.6497    2.3365 C   0  0  0  0  0  0  0  0  0  0  0  0
   -3.0242   -1.8515    1.8241 C   0  0  0  0  0  0  0  0  0  0  0  0
   -4.1008   -1.7915    2.5841 N   0  0  0  0  0  0  0  0  0  0  0  0
   -3.9206   -2.6002    3.7013 C   0  0  0  0  0  0  0  0  0  0  0  0
   -2.6156   -3.1693    3.5697 C   0  0  0  0  0  0  0  0  0  0  0  0
   -0.8185   -2.8183    1.7013 C   0  0  0  0  0  0  0  0  0  0  0  0
   -2.1952   -4.0013    4.5658 C   0  0  0  0  0  0  0  0  0  0  0  0
   -3.0009   -4.2509    5.6277 C   0  0  0  0  0  0  0  0  0  0  0  0
   -4.2676   -3.7095    5.7578 C   0  0  0  0  0  0  0  0  0  0  0  0
   -4.8595   -3.9660    6.6137 H   0  0  0  0  0  0  0  0  0  0  0  0
   -4.7365   -2.8945    4.7814 C   0  0  0  0  0  0  0  0  0  0  0  0
   -0.9438   -4.5229    4.4911 O   0  0  0  0  0  0  0  0  0  0  0  0
   -0.3776   -0.6962    0.3912 C   0  0  0  0  0  0  0  0  0  0  0  0
   -0.2846   -0.1981   -0.9590 C   0  0  0  0  0  0  0  0  0  0  0  0
    0.6176    0.9232   -1.0014 N   0  0  0  0  0  0  0  0  0  0  0  0
    0.9307    1.2366   -0.1276 H   0  0  0  0  0  0  0  0  0  0  0  0
   -1.6929    0.2141   -1.5044 C   0  0  0  0  0  0  0  0  0  0  0  0
   -2.6433   -0.8637   -1.9037 C   0  0  0  0  0  0  0  0  0  0  0  0
   -3.9993   -0.4741   -2.0553 C   0  0  0  0  0  0  0  0  0  0  0  0
   -2.2572   -2.1400   -2.2297 C   0  0  0  0  0  0  0  0  0  0  0  0
   -4.9529   -1.4025   -2.5024 C   0  0  0  0  0  0  0  0  0  0  0  0
   -3.2291   -3.0450   -2.6786 C   0  0  0  0  0  0  0  0  0  0  0  0
   -4.5809   -2.6968   -2.8289 C   0  0  0  0  0  0  0  0  0  0  0  0
    5.5510    3.2629   -1.3851 C   0  0  0  0  0  0  0  0  0  0  0  0
    6.0105    1.9557   -1.3209 C   0  0  0  0  0  0  0  0  0  0  0  0
    5.1320    0.9508   -1.4046 C   0  0  0  0  0  0  0  0  0  0  0  0
    3.7725    1.1875   -1.6231 C   0  0  0  0  0  0  0  0  0  0  0  0
    3.3291    2.4751   -1.7185 C   0  0  0  0  0  0  0  0  0  0  0  0
    4.2274    3.5285   -1.5727 C   0  0  0  0  0  0  0  0  0  0  0  0
    6.3961    4.1854   -1.1942 N   0  0  0  0  0  0  0  0  0  0  0  0
    6.0084    5.4597   -1.1086 C   0  0  0  0  0  0  0  0  0  0  0  0
    4.7561    5.7778   -1.3579 C   0  0  0  0  0  0  0  0  0  0  0  0
    6.8998    6.3928   -0.7251 N   0  0  0  0  0  0  0  0  0  0  0  0
    3.8257    4.8432   -1.6114 C   0  0  0  0  0  0  0  0  0  0  0  0
    1.8627    2.7788   -1.8780 C   0  0  0  0  0  0  0  0  0  0  0  0
    0.9794    1.5467   -2.1308 C   0  0  0  0  0  0  0  0  0  0  0  0
   -2.9112   -1.2279    0.8746 H   0  0  0  0  0  0  0  0  0  0  0  0
   -4.8872   -1.3208    2.3216 H   0  0  0  0  0  0  0  0  0  0  0  0
   -0.0856   -3.8311    2.0317 O   0  0  0  0  0  0  0  0  0  0  0  0
   -2.6409   -4.9064    6.4004 H   0  0  0  0  0  0  0  0  0  0  0  0
   -5.7049   -2.4844    4.8858 H   0  0  0  0  0  0  0  0  0  0  0  0
   -0.6830   -4.2096    3.4989 H   0  0  0  0  0  0  0  0  0  0  0  0
   -0.5942    0.0460    1.1578 H   0  0  0  0  0  0  0  0  0  0  0  0
    0.1357   -1.0007   -1.6688 H   0  0  0  0  0  0  0  0  0  0  0  0
   -1.5075    0.7590   -2.3961 H   0  0  0  0  0  0  0  0  0  0  0  0
   -2.1406    0.8695   -0.7426 H   0  0  0  0  0  0  0  0  0  0  0  0
   -4.3142    0.5238   -1.8158 H   0  0  0  0  0  0  0  0  0  0  0  0
   -1.2144   -2.4694   -2.1754 H   0  0  0  0  0  0  0  0  0  0  0  0
   -5.9885   -1.1308   -2.6320 H   0  0  0  0  0  0  0  0  0  0  0  0
   -2.9341   -4.0415   -2.8950 H   0  0  0  0  0  0  0  0  0  0  0  0
   -5.3085   -3.3801   -3.2058 H   0  0  0  0  0  0  0  0  0  0  0  0
    7.0420    1.7397   -1.1846 H   0  0  0  0  0  0  0  0  0  0  0  0
    5.4399   -0.0788   -1.3152 H   0  0  0  0  0  0  0  0  0  0  0  0
    3.0850    0.2850   -1.7235 H   0  0  0  0  0  0  0  0  0  0  0  0
    4.3809    6.8423   -1.3980 H   0  0  0  0  0  0  0  0  0  0  0  0
    6.5961    7.3067   -0.5784 H   0  0  0  0  0  0  0  0  0  0  0  0
    7.7338    5.9863   -0.5323 H   0  0  0  0  0  0  0  0  0  0  0  0
    2.8308    5.1822   -1.7737 H   0  0  0  0  0  0  0  0  0  0  0  0
    1.7331    3.4797   -2.7673 H   0  0  0  0  0  0  0  0  0  0  0  0
    1.4546    3.3398   -0.9860 H   0  0  0  0  0  0  0  0  0  0  0  0
    0.5797    1.2588   -3.2745 O   0  0  0  0  0  0  0  0  0  0  0  0
  1  2  1  0
  1  8  1  0
  1 15  2  3
  3  4  2  0
  3  7  1  0
  3  8  1  0
  4  5  1  0
  4 39  1  0
  5  6  1  0
  5 40  1  0
  6  7  2  0
  6 13  1  0
  7  9  1  0
  8 41  2  0
  9 10  2  0
  9 14  1  0
 10 11  1  0
 10 42  1  0
 11 12  1  0
 11 13  2  0
 13 43  1  0
 14 44  1  0
 15 16  1  0
 15 45  1  0
 16 17  1  0
 16 19  1  0
 16 46  1  0
 17 18  1  0
 17 38  1  0
 19 20  1  0
 19 47  1  0
 19 48  1  0
 20 21  2  0
 20 22  1  0
 21 23  1  0
 21 49  1  0
 22 24  2  0
 22 50  1  0
 23 25  2  0
 23 51  1  0
 24 25  1  0
 24 52  1  0
 25 53  1  0
 26 27  2  0
 26 31  1  0
 26 32  1  0
 27 28  1  0
 27 54  1  0
 28 29  2  0
 28 55  1  0
 29 30  1  0
 29 56  1  0
 30 31  2  0
 30 37  1  0
 31 36  1  0
 32 33  2  0
 33 34  1  0
 33 35  1  0
 34 36  2  0
 34 57  1  0
 35 58  1  0
 35 59  1  0
 36 60  1  0
 37 38  1  0
 37 61  1  0
 37 62  1  0
 38 63  2  0
M  END
>  <template_idx>  (3) 
4cra_ligand

>  <smiles>  (3) 
Nc1ccc2c(CC(=O)NC(C=CC(=O)c3c[nH]c4cccc(O)c34)Cc3ccccc3)cccc2n1

>  <qed>  (3) 
0.18537026865488496

$$$$
sample2
     RDKit          3D

 63 67  0  0  0  0  0  0  0  0999 V2000
   -0.4555   -2.0595    0.8635 H   0  0  0  0  0  0  0  0  0  0  0  0
   -1.2151   -1.4108    0.9726 C   0  0  0  0  0  0  0  0  0  0  0  0
   -2.1305   -1.8583    1.8886 N   0  0  0  0  0  0  0  0  0  0  0  0
   -3.4252   -1.4474    1.9082 C   0  0  0  0  0  0  0  0  0  0  0  0
   -4.1984   -1.8737    2.8663 N   0  0  0  0  0  0  0  0  0  0  0  0
   -3.8942   -2.7670    3.8310 C   0  0  0  0  0  0  0  0  0  0  0  0
   -2.6491   -3.2580    3.7646 C   0  0  0  0  0  0  0  0  0  0  0  0
   -1.7531   -2.8895    2.7450 C   0  0  0  0  0  0  0  0  0  0  0  0
   -2.2639   -4.2054    4.7627 C   0  0  0  0  0  0  0  0  0  0  0  0
   -3.1233   -4.5811    5.7510 C   0  0  0  0  0  0  0  0  0  0  0  0
   -4.3826   -4.0757    5.7670 C   0  0  0  0  0  0  0  0  0  0  0  0
   -5.4906   -4.5567    7.2538 Br  0  0  0  0  0  0  0  0  0  0  0  0
   -4.7887   -3.1877    4.8148 C   0  0  0  0  0  0  0  0  0  0  0  0
   -1.0509   -4.7359    4.7058 O   0  0  0  0  0  0  0  0  0  0  0  0
   -1.1013   -0.1782    0.3882 C   0  0  0  0  0  0  0  0  0  0  0  0
   -0.5496    0.0203   -0.9294 C   0  0  0  0  0  0  0  0  0  0  0  0
    0.3212    1.1425   -0.9265 N   0  0  0  0  0  0  0  0  0  0  0  0
    0.1419    1.8449   -0.2056 H   0  0  0  0  0  0  0  0  0  0  0  0
   -1.6365    0.2164   -2.1354 C   0  0  0  0  0  0  0  0  0  0  0  0
   -2.6942   -0.7802   -2.6110 C   0  0  0  0  0  0  0  0  0  0  0  0
   -4.0180   -0.7765   -2.1097 C   0  0  0  0  0  0  0  0  0  0  0  0
   -2.3916   -1.7509   -3.6484 C   0  0  0  0  0  0  0  0  0  0  0  0
   -4.9926   -1.6771   -2.5813 C   0  0  0  0  0  0  0  0  0  0  0  0
   -3.3900   -2.6365   -4.1348 C   0  0  0  0  0  0  0  0  0  0  0  0
   -4.7088   -2.6043   -3.6226 C   0  0  0  0  0  0  0  0  0  0  0  0
    5.9759    3.2329   -1.2954 C   0  0  0  0  0  0  0  0  0  0  0  0
    6.5562    1.9427   -1.3762 C   0  0  0  0  0  0  0  0  0  0  0  0
    5.7258    0.9453   -1.5524 C   0  0  0  0  0  0  0  0  0  0  0  0
    4.3371    1.1071   -1.6743 C   0  0  0  0  0  0  0  0  0  0  0  0
    3.7944    2.3522   -1.5751 C   0  0  0  0  0  0  0  0  0  0  0  0
    4.6257    3.4258   -1.3813 C   0  0  0  0  0  0  0  0  0  0  0  0
    6.7765    4.1437   -0.9729 N   0  0  0  0  0  0  0  0  0  0  0  0
    6.3332    5.4030   -0.7851 C   0  0  0  0  0  0  0  0  0  0  0  0
    5.0730    5.6791   -0.9992 C   0  0  0  0  0  0  0  0  0  0  0  0
    7.1576    6.2919   -0.3386 N   0  0  0  0  0  0  0  0  0  0  0  0
    4.1621    4.7344   -1.2862 C   0  0  0  0  0  0  0  0  0  0  0  0
    2.2466    2.5511   -1.5587 C   0  0  0  0  0  0  0  0  0  0  0  0
    1.3669    1.3369   -1.8147 C   0  0  0  0  0  0  0  0  0  0  0  0
   -3.8873   -0.5595    1.0807 O   0  0  0  0  0  0  0  0  0  0  0  0
   -5.1061   -1.4742    2.8695 H   0  0  0  0  0  0  0  0  0  0  0  0
   -0.6905   -3.4163    2.6537 O   0  0  0  0  0  0  0  0  0  0  0  0
   -2.7736   -5.2823    6.5263 H   0  0  0  0  0  0  0  0  0  0  0  0
   -5.7604   -2.7121    4.8476 H   0  0  0  0  0  0  0  0  0  0  0  0
   -0.6956   -4.5267    4.0842 H   0  0  0  0  0  0  0  0  0  0  0  0
   -1.4978    0.7120    0.8767 H   0  0  0  0  0  0  0  0  0  0  0  0
    0.0316   -0.9283   -1.2095 H   0  0  0  0  0  0  0  0  0  0  0  0
   -1.0118    0.2943   -3.0157 H   0  0  0  0  0  0  0  0  0  0  0  0
   -2.1739    1.0722   -1.7860 H   0  0  0  0  0  0  0  0  0  0  0  0
   -4.2830   -0.0668   -1.3179 H   0  0  0  0  0  0  0  0  0  0  0  0
   -1.3872   -1.8007   -4.0576 H   0  0  0  0  0  0  0  0  0  0  0  0
   -6.0043   -1.6406   -2.2067 H   0  0  0  0  0  0  0  0  0  0  0  0
   -3.1825   -3.3391   -4.9643 H   0  0  0  0  0  0  0  0  0  0  0  0
   -5.4684   -3.2425   -4.0494 H   0  0  0  0  0  0  0  0  0  0  0  0
    7.6599    1.7913   -1.2812 H   0  0  0  0  0  0  0  0  0  0  0  0
    6.1174   -0.0922   -1.6565 H   0  0  0  0  0  0  0  0  0  0  0  0
    3.6934    0.2149   -1.9019 H   0  0  0  0  0  0  0  0  0  0  0  0
    4.6782    6.7631   -0.8947 H   0  0  0  0  0  0  0  0  0  0  0  0
    6.8209    7.1799   -0.0834 H   0  0  0  0  0  0  0  0  0  0  0  0
    8.0287    5.9495   -0.1464 H   0  0  0  0  0  0  0  0  0  0  0  0
    3.1211    5.0229   -1.4363 H   0  0  0  0  0  0  0  0  0  0  0  0
    1.9982    3.3338   -2.3241 H   0  0  0  0  0  0  0  0  0  0  0  0
    1.9786    3.0108   -0.5609 H   0  0  0  0  0  0  0  0  0  0  0  0
    1.5039    0.6767   -2.8145 O   0  0  0  0  0  0  0  0  0  0  0  0
  1  2  1  0
  2  3  1  0
  2 15  2  3
  3  4  1  0
  3  8  1  0
  4  5  1  0
  4 39  2  0
  5  6  1  0
  5 40  1  0
  6  7  2  0
  6 13  1  0
  7  8  1  0
  7  9  1  0
  8 41  2  0
  9 10  2  0
  9 14  1  0
 10 11  1  0
 10 42  1  0
 11 12  1  0
 11 13  2  0
 13 43  1  0
 14 44  1  0
 15 16  1  0
 15 45  1  0
 16 17  1  0
 16 19  1  0
 16 46  1  0
 17 18  1  0
 17 38  1  0
 19 20  1  0
 19 47  1  0
 19 48  1  0
 20 21  2  0
 20 22  1  0
 21 23  1  0
 21 49  1  0
 22 24  2  0
 22 50  1  0
 23 25  2  0
 23 51  1  0
 24 25  1  0
 24 52  1  0
 25 53  1  0
 26 27  2  0
 26 31  1  0
 26 32  1  0
 27 28  1  0
 27 54  1  0
 28 29  2  0
 28 55  1  0
 29 30  1  0
 29 56  1  0
 30 31  2  0
 30 37  1  0
 31 36  1  0
 32 33  2  0
 33 34  1  0
 33 35  1  0
 34 36  2  0
 34 57  1  0
 35 58  1  0
 35 59  1  0
 36 60  1  0
 37 38  1  0
 37 61  1  0
 37 62  1  0
 38 63  2  0
M  END
>  <template_idx>  (4) 
4cra_ligand

>  <smiles>  (4) 
Nc1ccc2c(CC(=O)NC(C=Cn3c(=O)[nH]c4cc(Br)cc(O)c4c3=O)Cc3ccccc3)cccc2n1

>  <qed>  (4) 
0.22901641098816547

$$$$
sample3
     RDKit          3D

 63 67  0  0  0  0  0  0  0  0999 V2000
   -1.0697   -1.8061    0.7762 C   0  0  0  0  0  0  0  0  0  0  0  0
   -0.3356   -2.6521    0.3918 O   0  0  0  0  0  0  0  0  0  0  0  0
   -2.0618   -2.1671    1.8226 C   0  0  0  0  0  0  0  0  0  0  0  0
   -3.3134   -1.6215    1.8647 C   0  0  0  0  0  0  0  0  0  0  0  0
   -4.1995   -1.9428    2.8498 C   0  0  0  0  0  0  0  0  0  0  0  0
   -3.8934   -2.8422    3.8411 C   0  0  0  0  0  0  0  0  0  0  0  0
   -2.6165   -3.4064    3.8167 C   0  0  0  0  0  0  0  0  0  0  0  0
   -1.7833   -3.1295    2.7750 C   0  0  0  0  0  0  0  0  0  0  0  0
   -2.2592   -4.2927    4.8688 C   0  0  0  0  0  0  0  0  0  0  0  0
   -3.1461   -4.5130    5.8578 C   0  0  0  0  0  0  0  0  0  0  0  0
   -4.4224   -3.9016    5.9190 C   0  0  0  0  0  0  0  0  0  0  0  0
   -5.0789   -4.0699    6.7450 H   0  0  0  0  0  0  0  0  0  0  0  0
   -4.7812   -3.1060    4.8831 C   0  0  0  0  0  0  0  0  0  0  0  0
   -0.5575   -4.7271    4.3939 H   0  0  0  0  0  0  0  0  0  0  0  0
   -1.0519   -0.5116    0.4480 N   0  0  0  0  0  0  0  0  0  0  0  0
   -0.4875   -0.0579   -0.7876 C   0  0  0  0  0  0  0  0  0  0  0  0
    0.3793    1.1621   -0.6208 C   0  0  0  0  0  0  0  0  0  0  0  0
    0.2744    1.8216    0.4100 O   0  0  0  0  0  0  0  0  0  0  0  0
   -1.6338    0.3114   -1.8061 C   0  0  0  0  0  0  0  0  0  0  0  0
   -2.4942   -0.7895   -2.2852 C   0  0  0  0  0  0  0  0  0  0  0  0
   -3.9296   -0.7239   -2.1939 C   0  0  0  0  0  0  0  0  0  0  0  0
   -1.9529   -1.9016   -2.9562 C   0  0  0  0  0  0  0  0  0  0  0  0
   -4.7477   -1.7449   -2.6981 C   0  0  0  0  0  0  0  0  0  0  0  0
   -2.7918   -2.9324   -3.4713 C   0  0  0  0  0  0  0  0  0  0  0  0
   -4.2029   -2.8811   -3.3469 C   0  0  0  0  0  0  0  0  0  0  0  0
    5.7305    3.4242   -1.6896 C   0  0  0  0  0  0  0  0  0  0  0  0
    6.3038    2.1568   -1.8924 C   0  0  0  0  0  0  0  0  0  0  0  0
    5.4777    1.1244   -1.9805 C   0  0  0  0  0  0  0  0  0  0  0  0
    4.0751    1.2474   -1.9183 C   0  0  0  0  0  0  0  0  0  0  0  0
    3.5342    2.5067   -1.7882 C   0  0  0  0  0  0  0  0  0  0  0  0
    4.3816    3.6113   -1.6691 C   0  0  0  0  0  0  0  0  0  0  0  0
    6.5502    4.3562   -1.4778 N   0  0  0  0  0  0  0  0  0  0  0  0
    6.0821    5.5765   -1.1222 C   0  0  0  0  0  0  0  0  0  0  0  0
    4.7907    5.8376   -1.2442 C   0  0  0  0  0  0  0  0  0  0  0  0
    6.9524    6.4812   -0.5424 N   0  0  0  0  0  0  0  0  0  0  0  0
    3.8882    4.8969   -1.5318 C   0  0  0  0  0  0  0  0  0  0  0  0
    1.9990    2.6748   -1.6903 C   0  0  0  0  0  0  0  0  0  0  0  0
    1.2200    1.4357   -1.6440 N   0  0  0  0  0  0  0  0  0  0  0  0
   -3.5873   -0.8866    1.0622 H   0  0  0  0  0  0  0  0  0  0  0  0
   -5.1775   -1.4690    2.8190 H   0  0  0  0  0  0  0  0  0  0  0  0
   -0.8327   -3.6547    2.6625 H   0  0  0  0  0  0  0  0  0  0  0  0
   -2.8890   -5.1814    6.6659 H   0  0  0  0  0  0  0  0  0  0  0  0
   -5.7431   -2.6630    4.8862 H   0  0  0  0  0  0  0  0  0  0  0  0
   -1.1082   -4.8707    4.8527 O   0  0  0  0  0  0  0  0  0  0  0  0
   -1.0953    0.1924    1.0819 H   0  0  0  0  0  0  0  0  0  0  0  0
    0.1083   -0.8835   -1.1256 H   0  0  0  0  0  0  0  0  0  0  0  0
   -1.1674    0.7086   -2.7073 H   0  0  0  0  0  0  0  0  0  0  0  0
   -2.2481    1.0520   -1.2917 H   0  0  0  0  0  0  0  0  0  0  0  0
   -4.3650    0.1340   -1.7256 H   0  0  0  0  0  0  0  0  0  0  0  0
   -0.8878   -1.9850   -3.0753 H   0  0  0  0  0  0  0  0  0  0  0  0
   -5.8114   -1.6848   -2.5959 H   0  0  0  0  0  0  0  0  0  0  0  0
   -2.3452   -3.7747   -3.9651 H   0  0  0  0  0  0  0  0  0  0  0  0
   -4.8144   -3.6488   -3.7055 H   0  0  0  0  0  0  0  0  0  0  0  0
    7.3497    2.0080   -1.9856 H   0  0  0  0  0  0  0  0  0  0  0  0
    5.8633    0.1152   -2.1185 H   0  0  0  0  0  0  0  0  0  0  0  0
    3.4183    0.3186   -1.9542 H   0  0  0  0  0  0  0  0  0  0  0  0
    4.4499    6.8956   -1.0621 H   0  0  0  0  0  0  0  0  0  0  0  0
    6.4559    7.5364   -0.2550 O   0  0  0  0  0  0  0  0  0  0  0  0
    8.0977    6.2278   -0.3193 O   0  0  0  0  0  0  0  0  0  0  0  0
    2.8463    5.1861   -1.6115 H   0  0  0  0  0  0  0  0  0  0  0  0
    1.6992    3.2661   -2.5743 H   0  0  0  0  0  0  0  0  0  0  0  0
    1.7712    3.2751   -0.8251 H   0  0  0  0  0  0  0  0  0  0  0  0
    1.1840    0.8824   -2.4396 H   0  0  0  0  0  0  0  0  0  0  0  0
  1  2  2  0
  1  3  1  0
  1 15  1  0
  3  4  2  0
  3  8  1  0
  4  5  1  0
  4 39  1  0
  5  6  2  0
  5 40  1  0
  6  7  1  0
  6 13  1  0
  7  8  2  0
  7  9  1  0
  8 41  1  0
  9 10  2  0
  9 44  1  0
 10 11  1  0
 10 42  1  0
 11 12  1  0
 11 13  2  0
 13 43  1  0
 14 44  1  0
 15 16  1  0
 15 45  1  0
 16 17  1  0
 16 19  1  0
 16 46  1  0
 17 18  2  0
 17 38  1  0
 19 20  1  0
 19 47  1  0
 19 48  1  0
 20 21  2  0
 20 22  1  0
 21 23  1  0
 21 49  1  0
 22 24  2  0
 22 50  1  0
 23 25  2  0
 23 51  1  0
 24 25  1  0
 24 52  1  0
 25 53  1  0
 26 27  2  0
 26 31  1  0
 26 32  1  0
 27 28  1  0
 27 54  1  0
 28 29  2  0
 28 55  1  0
 29 30  1  0
 29 56  1  0
 30 31  2  0
 30 37  1  0
 31 36  1  0
 32 33  2  0
 33 34  1  0
 33 35  1  0
 34 36  2  0
 34 57  1  0
 35 58  1  0
 35 59  2  0
 36 60  1  0
 37 38  1  0
 37 61  1  0
 37 62  1  0
 38 63  1  0
M  CHG  2  35   1  58  -1
M  END
>  <template_idx>  (5) 
4cra_ligand

>  <smiles>  (5) 
O=C(NC(Cc1ccccc1)C(=O)NCc1cccc2nc([N+](=O)[O-])ccc12)c1ccc2cccc(O)c2c1

>  <qed>  (5) 
0.2012465087912415

$$$$
