template4m0y_ligand
     RDKit          3D

 35 37  0  0  0  0  0  0  0  0999 V2000
    3.4009    3.2430   -0.3146 C   0  0  0  0  0  0  0  0  0  0  0  0
    2.7039    2.5420    0.7134 C   0  0  0  0  0  0  0  0  0  0  0  0
    1.6399    1.7290    0.4064 C   0  0  0  0  0  0  0  0  0  0  0  0
    1.2059    1.5680   -0.9616 C   0  0  0  0  0  0  0  0  0  0  0  0
    1.9059    2.2990   -1.9936 C   0  0  0  0  0  0  0  0  0  0  0  0
    3.0169    3.1290   -1.6376 C   0  0  0  0  0  0  0  0  0  0  0  0
    1.4819    2.2150   -3.3656 C   0  0  0  0  0  0  0  0  0  0  0  0
    0.4009    1.4320   -3.7146 C   0  0  0  0  0  0  0  0  0  0  0  0
   -0.3051    0.6800   -2.7346 C   0  0  0  0  0  0  0  0  0  0  0  0
    0.0939    0.7300   -1.3896 C   0  0  0  0  0  0  0  0  0  0  0  0
   -0.6071   -0.1390   -0.4706 N   0  0  0  0  0  0  0  0  0  0  0  0
   -0.0001   -0.8850    0.5504 C   0  0  0  0  0  0  0  0  0  0  0  0
   -1.0321   -1.5880    1.1594 C   0  0  0  0  0  0  0  0  0  0  0  0
   -2.2331   -1.2060    0.4404 C   0  0  0  0  0  0  0  0  0  0  0  0
   -1.9351   -0.3240   -0.5356 N   0  0  0  0  0  0  0  0  0  0  0  0
   -3.6151   -1.6230    0.7274 C   0  0  0  0  0  0  0  0  0  0  0  0
   -3.8351   -2.2730    1.7324 O   0  0  0  0  0  0  0  0  0  0  0  0
   -4.6641   -1.2260   -0.1196 N   0  0  0  0  0  0  0  0  0  0  0  0
   -0.9891   -2.5020    2.2084 N   0  0  0  0  0  0  0  0  0  0  0  0
    0.1889   -2.8680    2.9544 C   0  0  0  0  0  0  0  0  0  0  0  0
    1.3279   -2.3810    2.7854 O   0  0  0  0  0  0  0  0  0  0  0  0
   -0.0091   -3.8230    3.9444 N   0  0  0  0  0  0  0  0  0  0  0  0
    4.2433    3.8738   -0.0549 H   0  0  0  0  0  0  0  0  0  0  0  0
    3.0163    2.6516    1.7456 H   0  0  0  0  0  0  0  0  0  0  0  0
    1.1207    1.2028    1.1993 H   0  0  0  0  0  0  0  0  0  0  0  0
    3.5576    3.6687   -2.4066 H   0  0  0  0  0  0  0  0  0  0  0  0
    2.0146    2.7699   -4.1294 H   0  0  0  0  0  0  0  0  0  0  0  0
    0.0848    1.3891   -4.7506 H   0  0  0  0  0  0  0  0  0  0  0  0
   -1.1511    0.0684   -3.0266 H   0  0  0  0  0  0  0  0  0  0  0  0
    1.0571   -0.9082    0.8108 H   0  0  0  0  0  0  0  0  0  0  0  0
   -5.6019   -1.5112    0.0785 H   0  0  0  0  0  0  0  0  0  0  0  0
   -4.4727   -0.6583   -0.9203 H   0  0  0  0  0  0  0  0  0  0  0  0
   -1.8490   -2.9424    2.4666 H   0  0  0  0  0  0  0  0  0  0  0  0
    0.7604   -4.1289    4.5051 H   0  0  0  0  0  0  0  0  0  0  0  0
   -0.9210   -4.2043    4.0961 H   0  0  0  0  0  0  0  0  0  0  0  0
  1  2  2  0
  1  6  1  0
  1 23  1  0
  2  3  1  0
  2 24  1  0
  3  4  2  0
  3 25  1  0
  4  5  1  0
  4 10  1  0
  5  6  2  0
  5  7  1  0
  6 26  1  0
  7  8  2  0
  7 27  1  0
  8  9  1  0
  8 28  1  0
  9 10  2  0
  9 29  1  0
 10 11  1  0
 11 12  1  0
 11 15  1  0
 12 13  2  0
 12 30  1  0
 13 14  1  0
 13 19  1  0
 14 15  2  0
 14 16  1  0
 16 17  2  0
 16 18  1  0
 18 31  1  0
 18 32  1  0
 19 20  1  0
 19 33  1  0
 20 21  2  0
 20 22  1  0
 22 34  1  0
 22 35  1  0
M  END
>  <template_idx>  (1) 
4m0y_ligand

>  <smiles>  (1) 
NC(=O)Nc1cn(-c2cccc3ccccc23)nc1C(N)=O

$$$$
sample0
     RDKit          3D

 35 37  0  0  0  0  0  0  0  0999 V2000
    3.1114    3.1970   -0.2103 C   0  0  0  0  0  0  0  0  0  0  0  0
    2.3934    2.4588    0.7471 C   0  0  0  0  0  0  0  0  0  0  0  0
    1.3429    1.6384    0.3869 C   0  0  0  0  0  0  0  0  0  0  0  0
    0.9961    1.5247   -0.9630 C   0  0  0  0  0  0  0  0  0  0  0  0
    1.6945    2.3141   -1.9426 C   0  0  0  0  0  0  0  0  0  0  0  0
    2.7484    3.1559   -1.5493 C   0  0  0  0  0  0  0  0  0  0  0  0
    1.3331    2.2439   -3.2898 C   0  0  0  0  0  0  0  0  0  0  0  0
    0.3444    1.3838   -3.6941 C   0  0  0  0  0  0  0  0  0  0  0  0
   -0.3004    0.5310   -2.7792 C   0  0  0  0  0  0  0  0  0  0  0  0
    0.0383    0.6219   -1.4543 C   0  0  0  0  0  0  0  0  0  0  0  0
   -0.5411   -0.2734   -0.5287 N   0  0  0  0  0  0  0  0  0  0  0  0
    0.1236   -1.0468    0.3375 C   0  0  0  0  0  0  0  0  0  0  0  0
   -0.8885   -1.6476    1.0447 C   0  0  0  0  0  0  0  0  0  0  0  0
   -2.1050   -1.2043    0.4863 C   0  0  0  0  0  0  0  0  0  0  0  0
   -1.8827   -0.3306   -0.4604 N   0  0  0  0  0  0  0  0  0  0  0  0
   -3.4970   -1.6057    0.7970 C   0  0  0  0  0  0  0  0  0  0  0  0
   -3.8003   -2.4346    1.6533 O   0  0  0  0  0  0  0  0  0  0  0  0
   -4.4068   -0.9375    0.0070 N   0  0  0  0  0  0  0  0  0  0  0  0
   -0.7832   -2.4995    2.1459 C   0  0  0  0  0  0  0  0  0  0  0  0
    0.3263   -2.9120    2.7805 C   0  0  0  0  0  0  0  0  0  0  0  0
    1.3936   -2.7825    2.4010 H   0  0  0  0  0  0  0  0  0  0  0  0
    0.2227   -3.5704    3.9645 N   0  0  0  0  0  0  0  0  0  0  0  0
    3.9250    3.8286    0.0871 H   0  0  0  0  0  0  0  0  0  0  0  0
    2.6846    2.5277    1.7814 H   0  0  0  0  0  0  0  0  0  0  0  0
    0.7950    1.1465    1.1692 H   0  0  0  0  0  0  0  0  0  0  0  0
    3.2418    3.7517   -2.2704 H   0  0  0  0  0  0  0  0  0  0  0  0
    1.8469    2.8626   -3.9843 H   0  0  0  0  0  0  0  0  0  0  0  0
    0.0904    1.3343   -4.7511 H   0  0  0  0  0  0  0  0  0  0  0  0
   -0.9979   -0.1836   -3.1333 H   0  0  0  0  0  0  0  0  0  0  0  0
    1.3470   -1.2176    0.4820 H   0  0  0  0  0  0  0  0  0  0  0  0
   -5.3717   -1.1062    0.1440 H   0  0  0  0  0  0  0  0  0  0  0  0
   -4.0553   -0.2748   -0.6513 H   0  0  0  0  0  0  0  0  0  0  0  0
   -1.7440   -2.8210    2.5346 H   0  0  0  0  0  0  0  0  0  0  0  0
    1.0380   -3.7898    4.4871 H   0  0  0  0  0  0  0  0  0  0  0  0
   -0.6632   -3.8834    4.2252 H   0  0  0  0  0  0  0  0  0  0  0  0
  1  2  2  0
  1  6  1  0
  1 23  1  0
  2  3  1  0
  2 24  1  0
  3  4  2  0
  3 25  1  0
  4  5  1  0
  4 10  1  0
  5  6  2  0
  5  7  1  0
  6 26  1  0
  7  8  2  0
  7 27  1  0
  8  9  1  0
  8 28  1  0
  9 10  2  0
  9 29  1  0
 10 11  1  0
 11 12  1  0
 11 15  1  0
 12 13  2  0
 12 30  1  0
 13 14  1  0
 13 19  1  0
 14 15  2  0
 14 16  1  0
 16 17  2  0
 16 18  1  0
 18 31  1  0
 18 32  1  0
 19 20  2  3
 19 33  1  0
 20 21  1  0
 20 22  1  0
 22 34  1  0
 22 35  1  0
M  END
>  <template_idx>  (2) 
4m0y_ligand

>  <smiles>  (2) 
NC=Cc1cn(-c2cccc3ccccc23)nc1C(N)=O

>  <qed>  (2) 
0.7683297215784499

$$$$
sample1
     RDKit          3D

 35 36  0  0  0  0  0  0  0  0999 V2000
    3.1819    3.1297   -0.0365 C   0  0  0  0  0  0  0  0  0  0  0  0
    2.3073    2.6114    0.9243 C   0  0  0  0  0  0  0  0  0  0  0  0
    1.2348    1.8250    0.5204 C   0  0  0  0  0  0  0  0  0  0  0  0
    1.0326    1.5514   -0.8301 C   0  0  0  0  0  0  0  0  0  0  0  0
    1.9019    2.1393   -1.8153 C   0  0  0  0  0  0  0  0  0  0  0  0
    2.9578    2.9178   -1.3806 C   0  0  0  0  0  0  0  0  0  0  0  0
    1.6721    1.9290   -3.1871 C   0  0  0  0  0  0  0  0  0  0  0  0
    0.6376    1.1491   -3.6010 C   0  0  0  0  0  0  0  0  0  0  0  0
   -0.1796    0.5081   -2.6849 C   0  0  0  0  0  0  0  0  0  0  0  0
    0.0589    0.6906   -1.3703 C   0  0  0  0  0  0  0  0  0  0  0  0
   -0.7100   -0.0464   -0.5262 N   0  0  0  0  0  0  0  0  0  0  0  0
   -0.1709   -0.7825    0.4160 C   0  0  0  0  0  0  0  0  0  0  0  0
   -1.2632   -1.4880    1.0537 C   0  0  0  0  0  0  0  0  0  0  0  0
   -2.4532   -1.1695    0.5562 N   0  0  0  0  0  0  0  0  0  0  0  0
   -1.6781   -0.0488   -0.7444 H   0  0  0  0  0  0  0  0  0  0  0  0
   -3.6200   -1.7370    0.7209 C   0  0  0  0  0  0  0  0  0  0  0  0
   -3.8792   -2.6301    1.5331 O   0  0  0  0  0  0  0  0  0  0  0  0
   -4.5455   -1.1272   -0.1225 N   0  0  0  0  0  0  0  0  0  0  0  0
   -0.9997   -2.3804    2.0883 C   0  0  0  0  0  0  0  0  0  0  0  0
    0.2262   -2.6382    2.5905 C   0  0  0  0  0  0  0  0  0  0  0  0
    1.1656   -2.0958    2.1681 H   0  0  0  0  0  0  0  0  0  0  0  0
    0.3703   -3.5569    3.5852 N   0  0  0  0  0  0  0  0  0  0  0  0
    4.0159    3.7140    0.2878 H   0  0  0  0  0  0  0  0  0  0  0  0
    2.4823    2.8526    1.9781 H   0  0  0  0  0  0  0  0  0  0  0  0
    0.5699    1.5046    1.2995 H   0  0  0  0  0  0  0  0  0  0  0  0
    3.6148    3.3031   -2.0994 H   0  0  0  0  0  0  0  0  0  0  0  0
    2.3166    2.3886   -3.8812 H   0  0  0  0  0  0  0  0  0  0  0  0
    0.4293    1.0421   -4.6846 H   0  0  0  0  0  0  0  0  0  0  0  0
   -0.9892   -0.1162   -3.0571 H   0  0  0  0  0  0  0  0  0  0  0  0
    1.0603   -0.9316    0.6473 O   0  0  0  0  0  0  0  0  0  0  0  0
   -5.4542   -1.4657   -0.0410 H   0  0  0  0  0  0  0  0  0  0  0  0
   -4.2612   -0.4152   -0.6722 H   0  0  0  0  0  0  0  0  0  0  0  0
   -1.8786   -2.9131    2.4971 H   0  0  0  0  0  0  0  0  0  0  0  0
    1.2503   -3.6648    3.9538 H   0  0  0  0  0  0  0  0  0  0  0  0
   -0.4038   -4.0494    3.9138 H   0  0  0  0  0  0  0  0  0  0  0  0
  1  2  2  0
  1  6  1  0
  1 23  1  0
  2  3  1  0
  2 24  1  0
  3  4  2  0
  3 25  1  0
  4  5  1  0
  4 10  1  0
  5  6  2  0
  5  7  1  0
  6 26  1  0
  7  8  2  0
  7 27  1  0
  8  9  1  0
  8 28  1  0
  9 10  2  0
  9 29  1  0
 10 11  1  0
 11 12  1  0
 11 15  1  0
 12 13  1  0
 12 30  2  0
 13 14  2  3
 13 19  1  0
 14 16  1  0
 16 17  2  0
 16 18  1  0
 18 31  1  0
 18 32  1  0
 19 20  2  3
 19 33  1  0
 20 21  1  0
 20 22  1  0
 22 34  1  0
 22 35  1  0
M  END
>  <template_idx>  (3) 
4m0y_ligand

>  <smiles>  (3) 
NC=CC(=NC(N)=O)C(=O)Nc1cccc2ccccc12

>  <qed>  (3) 
0.7457902427979183

$$$$
sample2
     RDKit          3D

 35 38  0  0  0  0  0  0  0  0999 V2000
    3.4077    3.0254   -0.1881 C   0  0  0  0  0  0  0  0  0  0  0  0
    2.5637    2.4630    0.7618 C   0  0  0  0  0  0  0  0  0  0  0  0
    1.4539    1.7311    0.3768 C   0  0  0  0  0  0  0  0  0  0  0  0
    1.1974    1.5088   -0.9837 C   0  0  0  0  0  0  0  0  0  0  0  0
    2.0135    2.1838   -1.9255 C   0  0  0  0  0  0  0  0  0  0  0  0
    3.1572    2.8579   -1.5309 C   0  0  0  0  0  0  0  0  0  0  0  0
    1.7352    2.0712   -3.2279 N   0  0  0  0  0  0  0  0  0  0  0  0
    0.6401    1.4609   -3.7807 C   0  0  0  0  0  0  0  0  0  0  0  0
   -0.1711    0.7688   -2.8484 C   0  0  0  0  0  0  0  0  0  0  0  0
    0.1298    0.7644   -1.5453 C   0  0  0  0  0  0  0  0  0  0  0  0
   -0.6052   -0.0896   -0.7691 N   0  0  0  0  0  0  0  0  0  0  0  0
   -0.0903   -0.6952    0.2330 C   0  0  0  0  0  0  0  0  0  0  0  0
   -1.1871   -1.3407    0.9624 C   0  0  0  0  0  0  0  0  0  0  0  0
   -2.3640   -1.1407    0.4821 N   0  0  0  0  0  0  0  0  0  0  0  0
   -1.6116   -0.1912   -1.1065 H   0  0  0  0  0  0  0  0  0  0  0  0
   -3.4001   -1.7984    0.9721 C   0  0  0  0  0  0  0  0  0  0  0  0
   -3.3675   -2.7009    1.9413 N   0  0  0  0  0  0  0  0  0  0  0  0
   -4.5694   -1.4643    0.3062 N   0  0  0  0  0  0  0  0  0  0  0  0
   -1.0237   -2.2168    2.0958 C   0  0  0  0  0  0  0  0  0  0  0  0
    0.1178   -2.5196    2.8969 C   0  0  0  0  0  0  0  0  0  0  0  0
    1.1012   -2.1104    2.7964 H   0  0  0  0  0  0  0  0  0  0  0  0
   -0.1856   -3.4138    3.8379 C   0  0  0  0  0  0  0  0  0  0  0  0
    4.2017    3.6597    0.1402 H   0  0  0  0  0  0  0  0  0  0  0  0
    2.8170    2.6137    1.8299 H   0  0  0  0  0  0  0  0  0  0  0  0
    0.8499    1.3720    1.1566 H   0  0  0  0  0  0  0  0  0  0  0  0
    3.7507    3.3186   -2.2771 H   0  0  0  0  0  0  0  0  0  0  0  0
    2.3460    2.5562   -3.9000 H   0  0  0  0  0  0  0  0  0  0  0  0
    0.3964    1.5490   -5.0251 O   0  0  0  0  0  0  0  0  0  0  0  0
   -1.0601    0.2768   -3.2432 H   0  0  0  0  0  0  0  0  0  0  0  0
    1.1134   -0.9775    0.5141 O   0  0  0  0  0  0  0  0  0  0  0  0
   -5.2912   -2.1112    0.4824 H   0  0  0  0  0  0  0  0  0  0  0  0
   -4.4859   -0.7592   -0.3251 H   0  0  0  0  0  0  0  0  0  0  0  0
   -2.1795   -2.8803    2.4960 C   0  0  0  0  0  0  0  0  0  0  0  0
    0.4499   -3.8315    4.5688 H   0  0  0  0  0  0  0  0  0  0  0  0
   -1.8501   -3.9401    3.8257 S   0  0  0  0  0  0  0  0  0  0  0  0
  1  2  2  0
  1  6  1  0
  1 23  1  0
  2  3  1  0
  2 24  1  0
  3  4  2  0
  3 25  1  0
  4  5  1  0
  4 10  1  0
  5  6  2  0
  5  7  1  0
  6 26  1  0
  7  8  1  0
  7 27  1  0
  8  9  1  0
  8 28  2  0
  9 10  2  0
  9 29  1  0
 10 11  1  0
 11 12  1  0
 11 15  1  0
 12 13  1  0
 12 30  2  0
 13 14  2  0
 13 19  1  0
 14 16  1  0
 16 17  2  0
 16 18  1  0
 17 33  1  0
 18 31  1  0
 18 32  1  0
 19 20  1  0
 19 33  2  0
 20 21  1  0
 20 22  2  0
 22 34  1  0
 22 35  1  0
 33 35  1  0
M  END
>  <template_idx>  (4) 
4m0y_ligand

>  <smiles>  (4) 
Nc1nc(C(=O)Nc2cc(=O)[nH]c3ccccc23)c2ccsc2n1

>  <qed>  (4) 
0.5194445909309736

$$$$
sample3
     RDKit          3D

 35 37  0  0  0  0  0  0  0  0999 V2000
    3.4269    3.0666   -0.2190 C   0  0  0  0  0  0  0  0  0  0  0  0
    2.7450    2.3151    0.7740 C   0  0  0  0  0  0  0  0  0  0  0  0
    1.6193    1.5246    0.4271 C   0  0  0  0  0  0  0  0  0  0  0  0
    1.1778    1.4852   -0.8952 C   0  0  0  0  0  0  0  0  0  0  0  0
    1.8548    2.2525   -1.9224 C   0  0  0  0  0  0  0  0  0  0  0  0
    2.9782    3.0521   -1.5438 C   0  0  0  0  0  0  0  0  0  0  0  0
    1.4186    2.2361   -3.2616 C   0  0  0  0  0  0  0  0  0  0  0  0
    0.3497    1.4462   -3.6385 C   0  0  0  0  0  0  0  0  0  0  0  0
   -0.3437    0.6755   -2.6898 C   0  0  0  0  0  0  0  0  0  0  0  0
    0.0720    0.6744   -1.3529 C   0  0  0  0  0  0  0  0  0  0  0  0
   -0.6056   -0.1812   -0.4511 C   0  0  0  0  0  0  0  0  0  0  0  0
   -0.0444   -0.8050    0.6011 N   0  0  0  0  0  0  0  0  0  0  0  0
   -1.0769   -1.5729    1.1223 C   0  0  0  0  0  0  0  0  0  0  0  0
   -2.2279   -1.2355    0.4313 C   0  0  0  0  0  0  0  0  0  0  0  0
   -1.9565   -0.3775   -0.5706 N   0  0  0  0  0  0  0  0  0  0  0  0
   -3.6201   -1.6680    0.7009 C   0  0  0  0  0  0  0  0  0  0  0  0
   -3.8500   -2.5119    1.5908 O   0  0  0  0  0  0  0  0  0  0  0  0
   -4.5613   -1.0231   -0.0697 N   0  0  0  0  0  0  0  0  0  0  0  0
   -0.9820   -2.4257    2.1295 N   0  0  0  0  0  0  0  0  0  0  0  0
    0.1802   -2.6824    2.7789 C   0  0  0  0  0  0  0  0  0  0  0  0
    1.3156   -2.0877    2.5073 O   0  0  0  0  0  0  0  0  0  0  0  0
    0.0069   -3.6502    3.7213 N   0  0  0  0  0  0  0  0  0  0  0  0
    4.2922    3.6488    0.0413 H   0  0  0  0  0  0  0  0  0  0  0  0
    3.1147    2.3477    1.8114 H   0  0  0  0  0  0  0  0  0  0  0  0
    1.1371    1.0527    1.2300 H   0  0  0  0  0  0  0  0  0  0  0  0
    3.4754    3.5948   -2.2916 H   0  0  0  0  0  0  0  0  0  0  0  0
    1.9557    2.8000   -3.9601 H   0  0  0  0  0  0  0  0  0  0  0  0
    0.0514    1.4323   -4.7013 H   0  0  0  0  0  0  0  0  0  0  0  0
   -1.1906    0.0914   -2.9975 H   0  0  0  0  0  0  0  0  0  0  0  0
    0.9207   -0.9443    0.9989 H   0  0  0  0  0  0  0  0  0  0  0  0
   -5.4353   -1.3140    0.0350 H   0  0  0  0  0  0  0  0  0  0  0  0
   -4.2218   -0.3237   -0.7250 H   0  0  0  0  0  0  0  0  0  0  0  0
   -1.8850   -2.9029    2.3688 H   0  0  0  0  0  0  0  0  0  0  0  0
    0.7765   -3.8687    4.2293 H   0  0  0  0  0  0  0  0  0  0  0  0
   -0.8676   -4.1212    3.7908 H   0  0  0  0  0  0  0  0  0  0  0  0
  1  2  2  0
  1  6  1  0
  1 23  1  0
  2  3  1  0
  2 24  1  0
  3  4  2  0
  3 25  1  0
  4  5  1  0
  4 10  1  0
  5  6  2  0
  5  7  1  0
  6 26  1  0
  7  8  2  0
  7 27  1  0
  8  9  1  0
  8 28  1  0
  9 10  2  0
  9 29  1  0
 10 11  1  0
 11 12  1  0
 11 15  2  0
 12 13  1  0
 12 30  1  0
 13 14  2  0
 13 19  1  0
 14 15  1  0
 14 16  1  0
 16 17  2  0
 16 18  1  0
 18 31  1  0
 18 32  1  0
 19 20  1  0
 19 33  1  0
 20 21  2  0
 20 22  1  0
 22 34  1  0
 22 35  1  0
M  END
>  <template_idx>  (5) 
4m0y_ligand

>  <smiles>  (5) 
NC(=O)Nc1[nH]c(-c2cccc3ccccc23)nc1C(N)=O

>  <qed>  (5) 
0.5880970589487512

$$$$
sample4
     RDKit          3D

 35 37  0  0  0  0  0  0  0  0999 V2000
    3.4769    3.1220   -0.3482 C   0  0  0  0  0  0  0  0  0  0  0  0
    2.6760    2.5974    0.6829 C   0  0  0  0  0  0  0  0  0  0  0  0
    1.5393    1.8984    0.3473 C   0  0  0  0  0  0  0  0  0  0  0  0
    1.2093    1.6560   -0.9933 C   0  0  0  0  0  0  0  0  0  0  0  0
    1.9785    2.2073   -2.0130 C   0  0  0  0  0  0  0  0  0  0  0  0
    3.1458    2.9454   -1.6870 C   0  0  0  0  0  0  0  0  0  0  0  0
    1.5556    2.0173   -3.3949 C   0  0  0  0  0  0  0  0  0  0  0  0
    0.4147    1.2228   -3.5775 N   0  0  0  0  0  0  0  0  0  0  0  0
   -0.3295    0.5541   -2.5985 C   0  0  0  0  0  0  0  0  0  0  0  0
    0.1266    0.8326   -1.3622 N   0  0  0  0  0  0  0  0  0  0  0  0
   -0.3841    0.0872   -0.2756 C   0  0  0  0  0  0  0  0  0  0  0  0
    0.3051   -0.7328    0.3403 C   0  0  0  0  0  0  0  0  0  0  0  0
   -1.7213   -1.6153    1.0195 N   0  0  0  0  0  0  0  0  0  0  0  0
   -2.3928   -2.2847    1.8423 C   0  0  0  0  0  0  0  0  0  0  0  0
   -1.4702    0.3301   -0.0411 H   0  0  0  0  0  0  0  0  0  0  0  0
   -3.8503   -2.1686    1.5891 C   0  0  0  0  0  0  0  0  0  0  0  0
   -4.6692   -2.5945    2.3398 O   0  0  0  0  0  0  0  0  0  0  0  0
   -4.1961   -1.5355    0.4189 N   0  0  0  0  0  0  0  0  0  0  0  0
   -0.4094   -3.1080    3.0514 C   0  0  0  0  0  0  0  0  0  0  0  0
    0.3187   -2.3440    2.1575 C   0  0  0  0  0  0  0  0  0  0  0  0
    1.4029   -2.3698    2.2086 H   0  0  0  0  0  0  0  0  0  0  0  0
   -1.7948   -3.0759    2.9254 C   0  0  0  0  0  0  0  0  0  0  0  0
    4.3738    3.6658   -0.0975 H   0  0  0  0  0  0  0  0  0  0  0  0
    2.9599    2.7648    1.7268 H   0  0  0  0  0  0  0  0  0  0  0  0
    0.9289    1.5936    1.1776 H   0  0  0  0  0  0  0  0  0  0  0  0
    3.7469    3.3450   -2.4863 H   0  0  0  0  0  0  0  0  0  0  0  0
    2.1258    2.5189   -4.3305 O   0  0  0  0  0  0  0  0  0  0  0  0
    0.1365    1.1378   -4.6042 H   0  0  0  0  0  0  0  0  0  0  0  0
   -1.3211   -0.2109   -2.8343 O   0  0  0  0  0  0  0  0  0  0  0  0
    1.4110   -0.8652    0.1443 H   0  0  0  0  0  0  0  0  0  0  0  0
   -5.1125   -1.2912    0.2625 H   0  0  0  0  0  0  0  0  0  0  0  0
   -3.5157   -1.3656   -0.2136 H   0  0  0  0  0  0  0  0  0  0  0  0
   -0.3980   -1.5646    1.1948 C   0  0  0  0  0  0  0  0  0  0  0  0
    0.1441   -3.7333    3.8636 H   0  0  0  0  0  0  0  0  0  0  0  0
   -2.4114   -3.6366    3.5650 H   0  0  0  0  0  0  0  0  0  0  0  0
  1  2  2  0
  1  6  1  0
  1 23  1  0
  2  3  1  0
  2 24  1  0
  3  4  2  0
  3 25  1  0
  4  5  1  0
  4 10  1  0
  5  6  2  0
  5  7  1  0
  6 26  1  0
  7  8  1  0
  7 27  2  0
  8  9  1  0
  8 28  1  0
  9 10  1  0
  9 29  2  0
 10 11  1  0
 11 12  2  3
 11 15  1  0
 12 30  1  0
 12 33  1  0
 13 14  2  0
 13 33  1  0
 14 16  1  0
 14 22  1  0
 16 17  2  0
 16 18  1  0
 18 31  1  0
 18 32  1  0
 19 20  1  0
 19 22  2  0
 19 34  1  0
 20 21  1  0
 20 33  2  0
 22 35  1  0
M  END
>  <template_idx>  (6) 
4m0y_ligand

>  <smiles>  (6) 
NC(=O)c1cccc(C=Cn2c(=O)[nH]c(=O)c3ccccc32)n1

>  <qed>  (6) 
0.7454826036526154

$$$$
sample5
     RDKit          3D

 35 36  0  0  0  0  0  0  0  0999 V2000
    3.3279    2.9140   -0.0458 C   0  0  0  0  0  0  0  0  0  0  0  0
    2.4724    2.3005    0.9112 C   0  0  0  0  0  0  0  0  0  0  0  0
    1.3487    1.5797    0.5252 C   0  0  0  0  0  0  0  0  0  0  0  0
    1.0864    1.4234   -0.8681 C   0  0  0  0  0  0  0  0  0  0  0  0
    1.9482    2.0661   -1.8532 C   0  0  0  0  0  0  0  0  0  0  0  0
    3.0512    2.8167   -1.4097 C   0  0  0  0  0  0  0  0  0  0  0  0
    1.6651    1.9626   -3.2446 C   0  0  0  0  0  0  0  0  0  0  0  0
    0.5910    1.2186   -3.6859 C   0  0  0  0  0  0  0  0  0  0  0  0
   -0.2200    0.5396   -2.7786 C   0  0  0  0  0  0  0  0  0  0  0  0
    0.0273    0.6670   -1.4293 C   0  0  0  0  0  0  0  0  0  0  0  0
   -0.8843    0.0409   -0.6349 N   0  0  0  0  0  0  0  0  0  0  0  0
   -0.4562   -0.7404    0.3457 C   0  0  0  0  0  0  0  0  0  0  0  0
   -1.4280   -1.3855    1.0340 C   0  0  0  0  0  0  0  0  0  0  0  0
   -2.7782   -1.1674    0.6945 C   0  0  0  0  0  0  0  0  0  0  0  0
   -1.8865    0.3008   -1.0498 H   0  0  0  0  0  0  0  0  0  0  0  0
   -3.7886   -1.9658    0.9382 C   0  0  0  0  0  0  0  0  0  0  0  0
   -3.7187   -2.8706    1.5607 H   0  0  0  0  0  0  0  0  0  0  0  0
   -5.0158   -1.5735    0.3830 C   0  0  0  0  0  0  0  0  0  0  0  0
   -1.1006   -2.2208    2.1366 C   0  0  0  0  0  0  0  0  0  0  0  0
    0.3589   -2.3543    2.4023 C   0  0  0  0  0  0  0  0  0  0  0  0
    1.3693   -1.8216    1.8553 O   0  0  0  0  0  0  0  0  0  0  0  0
    0.4602   -3.2605    3.4780 N   0  0  0  0  0  0  0  0  0  0  0  0
    4.1890    3.4681    0.2692 H   0  0  0  0  0  0  0  0  0  0  0  0
    2.7081    2.3843    1.9650 H   0  0  0  0  0  0  0  0  0  0  0  0
    0.7146    1.2162    1.3487 H   0  0  0  0  0  0  0  0  0  0  0  0
    3.6534    3.3195   -2.1362 H   0  0  0  0  0  0  0  0  0  0  0  0
    2.2746    2.5052   -3.9387 H   0  0  0  0  0  0  0  0  0  0  0  0
    0.3951    1.1347   -4.7575 H   0  0  0  0  0  0  0  0  0  0  0  0
   -0.9817   -0.1158   -3.1452 H   0  0  0  0  0  0  0  0  0  0  0  0
    0.6429   -0.9245    0.5535 H   0  0  0  0  0  0  0  0  0  0  0  0
   -6.0756   -1.2178   -0.0242 N   0  0  0  0  0  0  0  0  0  0  0  0
   -3.0338   -0.2624    0.1143 H   0  0  0  0  0  0  0  0  0  0  0  0
   -1.9347   -2.8426    2.8655 O   0  0  0  0  0  0  0  0  0  0  0  0
    1.3614   -3.4155    3.8000 H   0  0  0  0  0  0  0  0  0  0  0  0
   -0.3428   -3.7190    3.8208 H   0  0  0  0  0  0  0  0  0  0  0  0
  1  2  2  0
  1  6  1  0
  1 23  1  0
  2  3  1  0
  2 24  1  0
  3  4  2  0
  3 25  1  0
  4  5  1  0
  4 10  1  0
  5  6  2  0
  5  7  1  0
  6 26  1  0
  7  8  2  0
  7 27  1  0
  8  9  1  0
  8 28  1  0
  9 10  2  0
  9 29  1  0
 10 11  1  0
 11 12  1  0
 11 15  1  0
 12 13  2  3
 12 30  1  0
 13 14  1  0
 13 19  1  0
 14 16  2  3
 14 32  1  0
 16 17  1  0
 16 18  1  0
 18 31  3  0
 19 20  1  0
 19 33  2  0
 20 21  2  0
 20 22  1  0
 22 34  1  0
 22 35  1  0
M  END
>  <template_idx>  (7) 
4m0y_ligand

>  <smiles>  (7) 
N#CC=CC(=CNc1cccc2ccccc12)C(=O)C(N)=O

>  <qed>  (7) 
0.3820653697356868

$$$$
sample6
     RDKit          3D

 35 36  0  0  0  0  0  0  0  0999 V2000
    3.3336    3.3391   -0.1610 C   0  0  0  0  0  0  0  0  0  0  0  0
    2.5804    2.7473    0.8647 C   0  0  0  0  0  0  0  0  0  0  0  0
    1.4863    1.9610    0.6048 C   0  0  0  0  0  0  0  0  0  0  0  0
    1.1237    1.7258   -0.7178 C   0  0  0  0  0  0  0  0  0  0  0  0
    1.8986    2.3084   -1.8145 C   0  0  0  0  0  0  0  0  0  0  0  0
    2.9636    3.1442   -1.4907 C   0  0  0  0  0  0  0  0  0  0  0  0
    1.5013    2.0259   -3.1248 C   0  0  0  0  0  0  0  0  0  0  0  0
    0.4379    1.1807   -3.3781 C   0  0  0  0  0  0  0  0  0  0  0  0
   -0.2678    0.5401   -2.3152 C   0  0  0  0  0  0  0  0  0  0  0  0
    0.0735    0.8613   -1.0279 C   0  0  0  0  0  0  0  0  0  0  0  0
   -0.6485    0.4601   -0.0108 O   0  0  0  0  0  0  0  0  0  0  0  0
   -0.3880   -1.5116    0.9956 C   0  0  0  0  0  0  0  0  0  0  0  0
   -1.2387   -0.6482    0.1921 C   0  0  0  0  0  0  0  0  0  0  0  0
   -2.5173   -0.7147   -0.2222 C   0  0  0  0  0  0  0  0  0  0  0  0
   -2.8891   -0.0902   -1.1079 H   0  0  0  0  0  0  0  0  0  0  0  0
   -3.4879   -1.5033    0.4414 C   0  0  0  0  0  0  0  0  0  0  0  0
   -3.2710   -2.1144    1.4853 O   0  0  0  0  0  0  0  0  0  0  0  0
   -4.7569   -1.4546   -0.2556 N   0  0  0  0  0  0  0  0  0  0  0  0
   -0.5347   -2.6111    1.8108 C   0  0  0  0  0  0  0  0  0  0  0  0
    0.6035   -2.9638    2.6944 C   0  0  0  0  0  0  0  0  0  0  0  0
    1.7216   -2.4095    2.6326 O   0  0  0  0  0  0  0  0  0  0  0  0
    0.3566   -3.9506    3.6295 N   0  0  0  0  0  0  0  0  0  0  0  0
    4.1477    3.9766    0.0719 H   0  0  0  0  0  0  0  0  0  0  0  0
    2.8637    2.9586    1.9025 H   0  0  0  0  0  0  0  0  0  0  0  0
    0.9262    1.6029    1.4265 H   0  0  0  0  0  0  0  0  0  0  0  0
    3.4829    3.6308   -2.2617 H   0  0  0  0  0  0  0  0  0  0  0  0
    2.0056    2.5179   -3.9227 H   0  0  0  0  0  0  0  0  0  0  0  0
    0.1625    0.9483   -4.3952 H   0  0  0  0  0  0  0  0  0  0  0  0
   -1.0245   -0.2208   -2.5220 H   0  0  0  0  0  0  0  0  0  0  0  0
    0.6783   -1.1264    1.0362 H   0  0  0  0  0  0  0  0  0  0  0  0
   -5.5998   -2.1967    0.1854 O   0  0  0  0  0  0  0  0  0  0  0  0
   -4.9532   -0.6631   -1.2184 O   0  0  0  0  0  0  0  0  0  0  0  0
   -1.3846   -3.2555    1.8597 H   0  0  0  0  0  0  0  0  0  0  0  0
    1.1505   -4.2362    4.2505 H   0  0  0  0  0  0  0  0  0  0  0  0
   -0.5357   -4.2585    3.8626 H   0  0  0  0  0  0  0  0  0  0  0  0
  1  2  2  0
  1  6  1  0
  1 23  1  0
  2  3  1  0
  2 24  1  0
  3  4  2  0
  3 25  1  0
  4  5  1  0
  4 10  1  0
  5  6  2  0
  5  7  1  0
  6 26  1  0
  7  8  2  0
  7 27  1  0
  8  9  1  0
  8 28  1  0
  9 10  2  0
  9 29  1  0
 10 11  1  0
 11 13  1  0
 12 13  1  0
 12 19  2  3
 12 30  1  0
 13 14  2  3
 14 15  1  0
 14 16  1  0
 16 17  2  0
 16 18  1  0
 18 31  1  0
 18 32  2  0
 19 20  1  0
 19 33  1  0
 20 21  2  0
 20 22  1  0
 22 34  1  0
 22 35  1  0
M  CHG  2  18   1  31  -1
M  END
>  <template_idx>  (8) 
4m0y_ligand

>  <smiles>  (8) 
NC(=O)C=CC(=CC(=O)[N+](=O)[O-])Oc1cccc2ccccc12

>  <qed>  (8) 
0.29792989727252445

$$$$
sample7
     RDKit          3D

 35 37  0  0  0  0  0  0  0  0999 V2000
    3.2445    3.1396   -0.1772 C   0  0  0  0  0  0  0  0  0  0  0  0
    2.5369    2.4477    0.8314 C   0  0  0  0  0  0  0  0  0  0  0  0
    1.4763    1.6128    0.4652 C   0  0  0  0  0  0  0  0  0  0  0  0
    1.0963    1.5002   -0.9089 C   0  0  0  0  0  0  0  0  0  0  0  0
    1.7790    2.2317   -1.8860 C   0  0  0  0  0  0  0  0  0  0  0  0
    2.8609    3.0402   -1.5079 C   0  0  0  0  0  0  0  0  0  0  0  0
    1.3695    2.1264   -3.1743 N   0  0  0  0  0  0  0  0  0  0  0  0
    0.3181    1.4393   -3.6765 C   0  0  0  0  0  0  0  0  0  0  0  0
   -0.4221    0.7318   -2.7420 N   0  0  0  0  0  0  0  0  0  0  0  0
    0.0341    0.6620   -1.4316 C   0  0  0  0  0  0  0  0  0  0  0  0
   -0.5534   -0.2492   -0.6088 C   0  0  0  0  0  0  0  0  0  0  0  0
    0.1483   -1.0388    0.3754 C   0  0  0  0  0  0  0  0  0  0  0  0
   -1.0051   -1.6589    1.1322 C   0  0  0  0  0  0  0  0  0  0  0  0
   -2.1724   -1.2205    0.4558 C   0  0  0  0  0  0  0  0  0  0  0  0
   -1.9155   -0.3725   -0.5568 N   0  0  0  0  0  0  0  0  0  0  0  0
   -3.5195   -1.5833    0.6933 C   0  0  0  0  0  0  0  0  0  0  0  0
   -3.8949   -2.2876    1.6544 O   0  0  0  0  0  0  0  0  0  0  0  0
   -4.3936   -1.0840   -0.2298 N   0  0  0  0  0  0  0  0  0  0  0  0
   -0.9633   -2.3790    2.2258 C   0  0  0  0  0  0  0  0  0  0  0  0
    0.2387   -2.7798    2.8154 C   0  0  0  0  0  0  0  0  0  0  0  0
    1.3665   -2.5539    2.2978 O   0  0  0  0  0  0  0  0  0  0  0  0
    0.0923   -3.5042    4.0090 N   0  0  0  0  0  0  0  0  0  0  0  0
    4.0935    3.7756    0.0816 H   0  0  0  0  0  0  0  0  0  0  0  0
    2.8158    2.5631    1.8928 H   0  0  0  0  0  0  0  0  0  0  0  0
    0.9444    1.1211    1.2643 H   0  0  0  0  0  0  0  0  0  0  0  0
    3.4553    3.5805   -2.2928 H   0  0  0  0  0  0  0  0  0  0  0  0
    1.9255    2.6792   -3.8804 H   0  0  0  0  0  0  0  0  0  0  0  0
   -0.0231    1.4612   -4.8643 O   0  0  0  0  0  0  0  0  0  0  0  0
   -1.1890    0.0873   -3.0533 H   0  0  0  0  0  0  0  0  0  0  0  0
    1.4187   -1.1800    0.4289 O   0  0  0  0  0  0  0  0  0  0  0  0
   -5.3371   -1.3411   -0.1375 H   0  0  0  0  0  0  0  0  0  0  0  0
   -4.0667   -0.4847   -0.9447 H   0  0  0  0  0  0  0  0  0  0  0  0
   -1.8779   -2.7014    2.6772 H   0  0  0  0  0  0  0  0  0  0  0  0
    0.9038   -3.8843    4.4420 H   0  0  0  0  0  0  0  0  0  0  0  0
   -0.7847   -3.8964    4.3305 H   0  0  0  0  0  0  0  0  0  0  0  0
  1  2  2  0
  1  6  1  0
  1 23  1  0
  2  3  1  0
  2 24  1  0
  3  4  2  0
  3 25  1  0
  4  5  1  0
  4 10  1  0
  5  6  2  0
  5  7  1  0
  6 26  1  0
  7  8  1  0
  7 27  1  0
  8  9  1  0
  8 28  2  0
  9 10  1  0
  9 29  1  0
 10 11  2  3
 11 12  1  0
 11 15  1  0
 12 13  1  0
 12 30  2  0
 13 14  1  0
 13 19  2  3
 14 15  2  0
 14 16  1  0
 16 17  2  0
 16 18  1  0
 18 31  1  0
 18 32  1  0
 19 20  1  0
 19 33  1  0
 20 21  2  0
 20 22  1  0
 22 34  1  0
 22 35  1  0
M  END
>  <template_idx>  (9) 
4m0y_ligand

>  <smiles>  (9) 
NC(=O)C=C1C(=O)C(=C2NC(=O)Nc3ccccc32)N=C1C(N)=O

>  <qed>  (9) 
0.5358402167326143

$$$$
