template4cra_ligand
     RDKit          3D

 63 67  0  0  0  0  0  0  0  0999 V2000
   -1.0381   -1.5649    0.8161 C   0  0  0  0  0  0  0  0  0  0  0  0
   -0.1291   -2.3199    0.5121 O   0  0  0  0  0  0  0  0  0  0  0  0
   -1.9151   -1.8869    1.9741 C   0  0  0  0  0  0  0  0  0  0  0  0
   -3.1161   -1.1739    2.1631 C   0  0  0  0  0  0  0  0  0  0  0  0
   -3.9701   -1.4609    3.2001 C   0  0  0  0  0  0  0  0  0  0  0  0
   -3.6571   -2.4869    4.1011 C   0  0  0  0  0  0  0  0  0  0  0  0
   -2.4571   -3.2299    3.9111 C   0  0  0  0  0  0  0  0  0  0  0  0
   -1.5931   -2.9309    2.8461 C   0  0  0  0  0  0  0  0  0  0  0  0
   -2.1421   -4.3259    4.8441 C   0  0  0  0  0  0  0  0  0  0  0  0
   -3.0441   -4.6259    5.8381 C   0  0  0  0  0  0  0  0  0  0  0  0
   -4.2411   -3.8699    5.9721 C   0  0  0  0  0  0  0  0  0  0  0  0
   -5.0381   -4.1479    6.8671 O   0  0  0  0  0  0  0  0  0  0  0  0
   -4.5121   -2.8259    5.1421 N   0  0  0  0  0  0  0  0  0  0  0  0
   -0.9751   -5.0079    4.6921 O   0  0  0  0  0  0  0  0  0  0  0  0
   -1.3091   -0.4729    0.0661 N   0  0  0  0  0  0  0  0  0  0  0  0
   -0.5561   -0.1119   -1.1349 C   0  0  0  0  0  0  0  0  0  0  0  0
    0.2699    1.1231   -0.9559 C   0  0  0  0  0  0  0  0  0  0  0  0
    0.1029    1.8231    0.0191 O   0  0  0  0  0  0  0  0  0  0  0  0
   -1.6151    0.2871   -2.1759 C   0  0  0  0  0  0  0  0  0  0  0  0
   -2.5331   -0.8329   -2.6309 C   0  0  0  0  0  0  0  0  0  0  0  0
   -3.9061   -0.6939   -2.4559 C   0  0  0  0  0  0  0  0  0  0  0  0
   -2.0171   -1.9709   -3.2629 C   0  0  0  0  0  0  0  0  0  0  0  0
   -4.7651   -1.7069   -2.8759 C   0  0  0  0  0  0  0  0  0  0  0  0
   -2.8721   -2.9869   -3.6909 C   0  0  0  0  0  0  0  0  0  0  0  0
   -4.2461   -2.8449   -3.4939 C   0  0  0  0  0  0  0  0  0  0  0  0
    5.6549    3.1561   -1.1949 C   0  0  0  0  0  0  0  0  0  0  0  0
    6.1119    1.8161   -1.1259 C   0  0  0  0  0  0  0  0  0  0  0  0
    5.2149    0.7921   -1.2889 C   0  0  0  0  0  0  0  0  0  0  0  0
    3.8619    1.0711   -1.5299 C   0  0  0  0  0  0  0  0  0  0  0  0
    3.4019    2.3651   -1.6179 C   0  0  0  0  0  0  0  0  0  0  0  0
    4.2819    3.4451   -1.4439 C   0  0  0  0  0  0  0  0  0  0  0  0
    6.5019    4.1681   -1.0359 N   0  0  0  0  0  0  0  0  0  0  0  0
    6.1109    5.4261   -1.0919 C   0  0  0  0  0  0  0  0  0  0  0  0
    4.7719    5.7991   -1.3439 C   0  0  0  0  0  0  0  0  0  0  0  0
    7.0919    6.3891   -0.9009 N   0  0  0  0  0  0  0  0  0  0  0  0
    3.8409    4.8051   -1.5159 C   0  0  0  0  0  0  0  0  0  0  0  0
    1.9509    2.6691   -1.8529 C   0  0  0  0  0  0  0  0  0  0  0  0
    1.1389    1.4581   -1.9359 N   0  0  0  0  0  0  0  0  0  0  0  0
   -3.3725   -0.3787    1.4725 H   0  0  0  0  0  0  0  0  0  0  0  0
   -4.8859   -0.8937    3.3212 H   0  0  0  0  0  0  0  0  0  0  0  0
   -0.6846   -3.5042    2.7012 H   0  0  0  0  0  0  0  0  0  0  0  0
   -2.8408   -5.4458    6.5254 H   0  0  0  0  0  0  0  0  0  0  0  0
   -5.3450   -2.2911    5.2848 H   0  0  0  0  0  0  0  0  0  0  0  0
   -0.4541   -4.9217    5.4818 H   0  0  0  0  0  0  0  0  0  0  0  0
   -2.0643    0.1192    0.3474 H   0  0  0  0  0  0  0  0  0  0  0  0
    0.0663   -0.9544   -1.4707 H   0  0  0  0  0  0  0  0  0  0  0  0
   -1.0913    0.6775   -3.0609 H   0  0  0  0  0  0  0  0  0  0  0  0
   -2.2387    1.0810   -1.7390 H   0  0  0  0  0  0  0  0  0  0  0  0
   -4.3068    0.2010   -1.9936 H   0  0  0  0  0  0  0  0  0  0  0  0
   -0.9485   -2.0629   -3.4203 H   0  0  0  0  0  0  0  0  0  0  0  0
   -5.8340   -1.6112   -2.7230 H   0  0  0  0  0  0  0  0  0  0  0  0
   -2.4745   -3.8743   -4.1699 H   0  0  0  0  0  0  0  0  0  0  0  0
   -4.9183   -3.6282   -3.8250 H   0  0  0  0  0  0  0  0  0  0  0  0
    7.1595    1.6032   -0.9462 H   0  0  0  0  0  0  0  0  0  0  0  0
    5.5526   -0.2363   -1.2313 H   0  0  0  0  0  0  0  0  0  0  0  0
    3.1639    0.2504   -1.6494 H   0  0  0  0  0  0  0  0  0  0  0  0
    4.4869    6.8435   -1.4000 H   0  0  0  0  0  0  0  0  0  0  0  0
    6.8456    7.3887   -0.9336 H   0  0  0  0  0  0  0  0  0  0  0  0
    8.0662    6.1042   -0.7264 H   0  0  0  0  0  0  0  0  0  0  0  0
    2.7998    5.0436   -1.7013 H   0  0  0  0  0  0  0  0  0  0  0  0
    1.8541    3.2256   -2.7968 H   0  0  0  0  0  0  0  0  0  0  0  0
    1.5798    3.2879   -1.0226 H   0  0  0  0  0  0  0  0  0  0  0  0
    1.2276    0.8636   -2.7351 H   0  0  0  0  0  0  0  0  0  0  0  0
  1  2  2  0
  1  3  1  0
  1 15  1  0
  3  4  2  0
  3  8  1  0
  4  5  1  0
  4 39  1  0
  5  6  2  0
  5 40  1  0
  6  7  1  0
  6 13  1  0
  7  8  2  0
  7  9  1  0
  8 41  1  0
  9 10  2  0
  9 14  1  0
 10 11  1  0
 10 42  1  0
 11 12  2  0
 11 13  1  0
 13 43  1  0
 14 44  1  0
 15 16  1  0
 15 45  1  0
 16 17  1  0
 16 19  1  0
 16 46  1  0
 17 18  2  0
 17 38  1  0
 19 20  1  0
 19 47  1  0
 19 48  1  0
 20 21  2  0
 20 22  1  0
 21 23  1  0
 21 49  1  0
 22 24  2  0
 22 50  1  0
 23 25  2  0
 23 51  1  0
 24 25  1  0
 24 52  1  0
 25 53  1  0
 26 27  2  0
 26 31  1  0
 26 32  1  0
 27 28  1  0
 27 54  1  0
 28 29  2  0
 28 55  1  0
 29 30  1  0
 29 56  1  0
 30 31  2  0
 30 37  1  0
 31 36  1  0
 32 33  2  0
 33 34  1  0
 33 35  1  0
 34 36  2  0
 34 57  1  0
 35 58  1  0
 35 59  1  0
 36 60  1  0
 37 38  1  0
 37 61  1  0
 37 62  1  0
 38 63  1  0
M  END
>  <template_idx>  (1) 
4cra_ligand

>  <smiles>  (1) 
Nc1ccc2c(CNC(=O)C(Cc3ccccc3)NC(=O)c3ccc4[nH]c(=O)cc(O)c4c3)cccc2n1

$$$$
sample0
     RDKit          3D

 63 67  0  0  0  0  0  0  0  0999 V2000
   -1.0006   -1.6146    0.9312 C   0  0  0  0  0  0  0  0  0  0  0  0
   -0.3109   -2.4699    0.6166 O   0  0  0  0  0  0  0  0  0  0  0  0
   -2.0137   -1.8940    2.0150 C   0  0  0  0  0  0  0  0  0  0  0  0
   -3.1885   -1.2723    2.0798 C   0  0  0  0  0  0  0  0  0  0  0  0
   -4.1003   -1.5238    3.0704 C   0  0  0  0  0  0  0  0  0  0  0  0
   -3.8387   -2.4331    4.0566 C   0  0  0  0  0  0  0  0  0  0  0  0
   -2.6914   -3.1202    3.9828 C   0  0  0  0  0  0  0  0  0  0  0  0
   -1.8162   -2.9093    2.9483 C   0  0  0  0  0  0  0  0  0  0  0  0
   -2.4011   -4.1025    5.0018 C   0  0  0  0  0  0  0  0  0  0  0  0
   -3.3198   -4.2349    6.0576 C   0  0  0  0  0  0  0  0  0  0  0  0
   -4.3510   -3.4448    5.9994 N   0  0  0  0  0  0  0  0  0  0  0  0
   -5.0005   -3.6158    6.8561 H   0  0  0  0  0  0  0  0  0  0  0  0
   -4.7517   -2.6414    5.1125 C   0  0  0  0  0  0  0  0  0  0  0  0
   -1.2788   -4.7206    5.1000 N   0  0  0  0  0  0  0  0  0  0  0  0
   -0.7924   -0.3884    0.4185 N   0  0  0  0  0  0  0  0  0  0  0  0
   -0.3215   -0.1767   -0.8778 C   0  0  0  0  0  0  0  0  0  0  0  0
    0.6726    0.9670   -0.9192 C   0  0  0  0  0  0  0  0  0  0  0  0
    0.9959    1.4893    0.1087 O   0  0  0  0  0  0  0  0  0  0  0  0
   -1.4317    0.0900   -1.9746 C   0  0  0  0  0  0  0  0  0  0  0  0
   -2.4726   -0.9225   -2.4077 C   0  0  0  0  0  0  0  0  0  0  0  0
   -3.8169   -0.8197   -2.0959 C   0  0  0  0  0  0  0  0  0  0  0  0
   -2.1599   -1.9850   -3.2743 C   0  0  0  0  0  0  0  0  0  0  0  0
   -4.8184   -1.6576   -2.6009 C   0  0  0  0  0  0  0  0  0  0  0  0
   -3.1445   -2.8382   -3.8255 C   0  0  0  0  0  0  0  0  0  0  0  0
   -4.4967   -2.6839   -3.5069 C   0  0  0  0  0  0  0  0  0  0  0  0
    5.6176    3.2386   -1.5180 C   0  0  0  0  0  0  0  0  0  0  0  0
    6.1707    2.0205   -1.3901 C   0  0  0  0  0  0  0  0  0  0  0  0
    5.3867    0.9452   -1.5466 C   0  0  0  0  0  0  0  0  0  0  0  0
    4.0704    1.0998   -1.8402 C   0  0  0  0  0  0  0  0  0  0  0  0
    3.5412    2.3402   -1.9454 C   0  0  0  0  0  0  0  0  0  0  0  0
    4.3890    3.4027   -1.8319 C   0  0  0  0  0  0  0  0  0  0  0  0
    6.3977    4.1536   -1.2058 O   0  0  0  0  0  0  0  0  0  0  0  0
    6.0455    5.3767   -1.2047 C   0  0  0  0  0  0  0  0  0  0  0  0
    4.9849    5.7139   -1.7162 C   0  0  0  0  0  0  0  0  0  0  0  0
    6.8346    6.1404   -0.5408 N   0  0  0  0  0  0  0  0  0  0  0  0
    3.9910    4.7309   -2.0325 C   0  0  0  0  0  0  0  0  0  0  0  0
    2.0659    2.5246   -2.1868 C   0  0  0  0  0  0  0  0  0  0  0  0
    1.2007    1.3250   -2.0957 N   0  0  0  0  0  0  0  0  0  0  0  0
   -3.4184   -0.4724    1.2923 H   0  0  0  0  0  0  0  0  0  0  0  0
   -5.0490   -0.9476    3.0894 H   0  0  0  0  0  0  0  0  0  0  0  0
   -0.9466   -3.5272    2.8288 H   0  0  0  0  0  0  0  0  0  0  0  0
   -3.2269   -5.0258    7.1124 O   0  0  0  0  0  0  0  0  0  0  0  0
   -5.8756   -2.0480    5.3706 O   0  0  0  0  0  0  0  0  0  0  0  0
   -1.0568   -5.3712    5.6106 H   0  0  0  0  0  0  0  0  0  0  0  0
   -0.6632    0.3163    0.9710 H   0  0  0  0  0  0  0  0  0  0  0  0
    0.1439   -1.0655   -1.1068 H   0  0  0  0  0  0  0  0  0  0  0  0
   -0.9373    0.2013   -2.8491 H   0  0  0  0  0  0  0  0  0  0  0  0
   -1.9767    0.9657   -1.5771 H   0  0  0  0  0  0  0  0  0  0  0  0
   -4.2160    0.1779   -1.3070 F   0  0  0  0  0  0  0  0  0  0  0  0
   -1.1294   -2.1648   -3.5107 F   0  0  0  0  0  0  0  0  0  0  0  0
   -5.8572   -1.5307   -2.3363 H   0  0  0  0  0  0  0  0  0  0  0  0
   -2.8716   -3.6306   -4.5355 H   0  0  0  0  0  0  0  0  0  0  0  0
   -5.2320   -3.3026   -3.9466 H   0  0  0  0  0  0  0  0  0  0  0  0
    8.0158    1.8509   -0.9977 I   0  0  0  0  0  0  0  0  0  0  0  0
    5.8070   -0.3095   -1.4748 F   0  0  0  0  0  0  0  0  0  0  0  0
    3.2738   -0.0293   -2.0142 F   0  0  0  0  0  0  0  0  0  0  0  0
    4.6585    6.7432   -1.9318 H   0  0  0  0  0  0  0  0  0  0  0  0
    6.6502    7.1303   -0.4088 H   0  0  0  0  0  0  0  0  0  0  0  0
    7.6140    5.7193   -0.1001 H   0  0  0  0  0  0  0  0  0  0  0  0
    2.8838    5.1118   -2.3783 O   0  0  0  0  0  0  0  0  0  0  0  0
    1.9139    2.9537   -3.1780 H   0  0  0  0  0  0  0  0  0  0  0  0
    1.7346    3.3175   -1.5331 H   0  0  0  0  0  0  0  0  0  0  0  0
    0.9142    0.8481   -2.9069 H   0  0  0  0  0  0  0  0  0  0  0  0
  1  2  2  0
  1  3  1  0
  1 15  1  0
  3  4  2  0
  3  8  1  0
  4  5  1  0
  4 39  1  0
  5  6  2  0
  5 40  1  0
  6  7  1  0
  6 13  1  0
  7  8  2  0
  7  9  1  0
  8 41  1  0
  9 10  1  0
  9 14  2  3
 10 11  1  0
 10 42  2  0
 11 12  1  0
 11 13  1  0
 13 43  2  0
 14 44  1  0
 15 16  1  0
 15 45  1  0
 16 17  1  0
 16 19  1  0
 16 46  1  0
 17 18  2  0
 17 38  1  0
 19 20  1  0
 19 47  1  0
 19 48  1  0
 20 21  2  0
 20 22  1  0
 21 23  1  0
 21 49  1  0
 22 24  2  0
 22 50  1  0
 23 25  2  0
 23 51  1  0
 24 25  1  0
 24 52  1  0
 25 53  1  0
 26 27  2  0
 26 31  1  0
 26 32  1  0
 27 28  1  0
 27 54  1  0
 28 29  2  0
 28 55  1  0
 29 30  1  0
 29 56  1  0
 30 31  2  0
 30 37  1  0
 31 36  1  0
 32 33  1  0
 33 34  2  0
 33 35  1  0
 34 36  1  0
 34 57  1  0
 35 58  1  0
 35 59  1  0
 36 60  2  0
 37 38  1  0
 37 61  1  0
 37 62  1  0
 38 63  1  0
M  END
>  <template_idx>  (2) 
4cra_ligand

>  <smiles>  (2) 
N=C1C(=O)NC(=O)c2ccc(C(=O)NC(Cc3c(F)cccc3F)C(=O)NCc3c(F)c(F)c(I)c4oc(N)cc(=O)c34)cc21

>  <qed>  (2) 
0.08369103759565885

$$$$
sample1
     RDKit          3D

 63 67  0  0  0  0  0  0  0  0999 V2000
   -1.5686   -1.0713    0.9106 C   0  0  0  0  0  0  0  0  0  0  0  0
   -0.7634   -1.9947    0.8284 O   0  0  0  0  0  0  0  0  0  0  0  0
   -2.6106   -1.1976    1.7105 N   0  0  0  0  0  0  0  0  0  0  0  0
   -2.8954   -2.1699    2.7346 C   0  0  0  0  0  0  0  0  0  0  0  0
   -3.9911   -2.0414    3.4281 N   0  0  0  0  0  0  0  0  0  0  0  0
   -3.9472   -2.9818    4.4795 C   0  0  0  0  0  0  0  0  0  0  0  0
   -2.7170   -3.6608    4.2681 C   0  0  0  0  0  0  0  0  0  0  0  0
   -2.1096   -3.1693    3.1001 C   0  0  0  0  0  0  0  0  0  0  0  0
   -2.3167   -4.5998    5.1864 C   0  0  0  0  0  0  0  0  0  0  0  0
   -3.1333   -4.8390    6.2434 C   0  0  0  0  0  0  0  0  0  0  0  0
   -4.3783   -4.1506    6.4454 C   0  0  0  0  0  0  0  0  0  0  0  0
   -4.9607   -4.3598    7.3596 H   0  0  0  0  0  0  0  0  0  0  0  0
   -4.7755   -3.2051    5.5479 C   0  0  0  0  0  0  0  0  0  0  0  0
   -1.1477   -5.1853    4.9144 O   0  0  0  0  0  0  0  0  0  0  0  0
   -1.3245    0.0881    0.2951 N   0  0  0  0  0  0  0  0  0  0  0  0
   -0.5434    0.1350   -0.8871 C   0  0  0  0  0  0  0  0  0  0  0  0
    0.4022    1.2931   -0.7382 C   0  0  0  0  0  0  0  0  0  0  0  0
    0.3978    2.0137    0.2598 O   0  0  0  0  0  0  0  0  0  0  0  0
   -1.3662    0.2019   -2.2492 C   0  0  0  0  0  0  0  0  0  0  0  0
   -2.5003   -0.7317   -2.6079 C   0  0  0  0  0  0  0  0  0  0  0  0
   -3.8676   -0.4753   -2.3321 C   0  0  0  0  0  0  0  0  0  0  0  0
   -2.3296   -1.9087   -3.4281 C   0  0  0  0  0  0  0  0  0  0  0  0
   -4.9446   -1.2050   -2.8655 C   0  0  0  0  0  0  0  0  0  0  0  0
   -3.3785   -2.6689   -4.0050 C   0  0  0  0  0  0  0  0  0  0  0  0
   -4.7060   -2.3029   -3.7317 C   0  0  0  0  0  0  0  0  0  0  0  0
    5.9042    3.1995   -1.7758 C   0  0  0  0  0  0  0  0  0  0  0  0
    6.4555    1.9176   -1.9591 C   0  0  0  0  0  0  0  0  0  0  0  0
    5.6080    0.9229   -2.0214 C   0  0  0  0  0  0  0  0  0  0  0  0
    4.1820    1.1002   -1.9643 C   0  0  0  0  0  0  0  0  0  0  0  0
    3.6754    2.3773   -1.8493 C   0  0  0  0  0  0  0  0  0  0  0  0
    4.5609    3.4271   -1.7755 C   0  0  0  0  0  0  0  0  0  0  0  0
    6.7069    4.1003   -1.6227 N   0  0  0  0  0  0  0  0  0  0  0  0
    6.2875    5.3702   -1.3594 C   0  0  0  0  0  0  0  0  0  0  0  0
    5.0050    5.6902   -1.4648 C   0  0  0  0  0  0  0  0  0  0  0  0
    7.1337    6.2304   -0.9127 N   0  0  0  0  0  0  0  0  0  0  0  0
    4.0900    4.7488   -1.6829 C   0  0  0  0  0  0  0  0  0  0  0  0
    2.1628    2.6238   -1.7254 C   0  0  0  0  0  0  0  0  0  0  0  0
    1.3229    1.4373   -1.7054 N   0  0  0  0  0  0  0  0  0  0  0  0
   -3.3670   -0.4790    1.5709 H   0  0  0  0  0  0  0  0  0  0  0  0
   -4.7004   -1.4032    3.3226 H   0  0  0  0  0  0  0  0  0  0  0  0
   -1.2185   -3.5290    2.6919 H   0  0  0  0  0  0  0  0  0  0  0  0
   -2.8013   -5.5573    7.0149 H   0  0  0  0  0  0  0  0  0  0  0  0
   -5.7380   -2.7080    5.6973 H   0  0  0  0  0  0  0  0  0  0  0  0
   -0.7644   -5.5918    5.3577 H   0  0  0  0  0  0  0  0  0  0  0  0
   -1.2338    0.8832    0.8350 H   0  0  0  0  0  0  0  0  0  0  0  0
    0.0089   -0.7837   -0.8855 H   0  0  0  0  0  0  0  0  0  0  0  0
   -0.6544   -0.0015   -3.0518 H   0  0  0  0  0  0  0  0  0  0  0  0
   -1.8391    1.1771   -2.2202 H   0  0  0  0  0  0  0  0  0  0  0  0
   -4.1548    0.5792   -1.5166 F   0  0  0  0  0  0  0  0  0  0  0  0
   -1.1209   -2.3027   -3.6664 F   0  0  0  0  0  0  0  0  0  0  0  0
   -5.9730   -0.9232   -2.6695 H   0  0  0  0  0  0  0  0  0  0  0  0
   -3.1682   -3.5539   -4.6507 H   0  0  0  0  0  0  0  0  0  0  0  0
   -5.5215   -2.8484   -4.1861 H   0  0  0  0  0  0  0  0  0  0  0  0
    7.5369    1.7559   -2.0747 H   0  0  0  0  0  0  0  0  0  0  0  0
    5.9641   -0.1230   -2.1416 H   0  0  0  0  0  0  0  0  0  0  0  0
    3.5020    0.1811   -1.9598 H   0  0  0  0  0  0  0  0  0  0  0  0
    4.6218    6.7640   -1.3767 H   0  0  0  0  0  0  0  0  0  0  0  0
    6.8455    7.1154   -0.6998 H   0  0  0  0  0  0  0  0  0  0  0  0
    8.0106    5.8756   -0.7695 H   0  0  0  0  0  0  0  0  0  0  0  0
    3.0402    5.1123   -1.6909 H   0  0  0  0  0  0  0  0  0  0  0  0
    1.8659    3.2425   -2.5656 H   0  0  0  0  0  0  0  0  0  0  0  0
    1.9796    3.2429   -0.8630 H   0  0  0  0  0  0  0  0  0  0  0  0
    1.2613    0.9167   -2.5500 H   0  0  0  0  0  0  0  0  0  0  0  0
  1  2  2  0
  1  3  1  0
  1 15  1  0
  3  4  1  0
  3 39  1  0
  4  5  1  0
  4  8  2  0
  5  6  1  0
  5 40  1  0
  6  7  2  0
  6 13  1  0
  7  8  1  0
  7  9  1  0
  8 41  1  0
  9 10  2  0
  9 14  1  0
 10 11  1  0
 10 42  1  0
 11 12  1  0
 11 13  2  0
 13 43  1  0
 14 44  1  0
 15 16  1  0
 15 45  1  0
 16 17  1  0
 16 19  1  0
 16 46  1  0
 17 18  2  0
 17 38  1  0
 19 20  1  0
 19 47  1  0
 19 48  1  0
 20 21  2  0
 20 22  1  0
 21 23  1  0
 21 49  1  0
 22 24  2  0
 22 50  1  0
 23 25  2  0
 23 51  1  0
 24 25  1  0
 24 52  1  0
 25 53  1  0
 26 27  2  0
 26 31  1  0
 26 32  1  0
 27 28  1  0
 27 54  1  0
 28 29  2  0
 28 55  1  0
 29 30  1  0
 29 56  1  0
 30 31  2  0
 30 37  1  0
 31 36  1  0
 32 33  2  0
 33 34  1  0
 33 35  1  0
 34 36  2  0
 34 57  1  0
 35 58  1  0
 35 59  1  0
 36 60  1  0
 37 38  1  0
 37 61  1  0
 37 62  1  0
 38 63  1  0
M  END
>  <template_idx>  (3) 
4cra_ligand

>  <smiles>  (3) 
Nc1ccc2c(CNC(=O)C(Cc3c(F)cccc3F)NC(=O)Nc3cc4c(O)cccc4[nH]3)cccc2n1

>  <qed>  (3) 
0.18553071141632183

$$$$
sample2
     RDKit          3D

 63 67  0  0  0  0  0  0  0  0999 V2000
   -1.1233   -1.3845    1.2129 C   0  0  0  0  0  0  0  0  0  0  0  0
   -0.0751   -1.8867    1.3678 O   0  0  0  0  0  0  0  0  0  0  0  0
   -2.2404   -1.7963    2.1080 C   0  0  0  0  0  0  0  0  0  0  0  0
   -3.5564   -1.4091    1.8343 C   0  0  0  0  0  0  0  0  0  0  0  0
   -4.4751   -1.8620    2.6589 N   0  0  0  0  0  0  0  0  0  0  0  0
   -4.2772   -2.5552    3.7859 C   0  0  0  0  0  0  0  0  0  0  0  0
   -3.0033   -2.9963    4.0149 C   0  0  0  0  0  0  0  0  0  0  0  0
   -2.0185   -2.6472    3.1508 C   0  0  0  0  0  0  0  0  0  0  0  0
   -2.7883   -3.7552    5.1707 C   0  0  0  0  0  0  0  0  0  0  0  0
   -3.7921   -3.9322    6.0549 C   0  0  0  0  0  0  0  0  0  0  0  0
   -5.1004   -3.4710    5.8240 C   0  0  0  0  0  0  0  0  0  0  0  0
   -5.8743   -3.6199    6.5198 H   0  0  0  0  0  0  0  0  0  0  0  0
   -5.3375   -2.8194    4.6346 C   0  0  0  0  0  0  0  0  0  0  0  0
   -1.5492   -4.2244    5.4002 O   0  0  0  0  0  0  0  0  0  0  0  0
   -1.3971   -0.5036    0.2971 N   0  0  0  0  0  0  0  0  0  0  0  0
   -0.5987   -0.3037   -0.8724 C   0  0  0  0  0  0  0  0  0  0  0  0
    0.2652    0.8798   -0.7410 C   0  0  0  0  0  0  0  0  0  0  0  0
   -0.1543    1.8183   -0.0622 O   0  0  0  0  0  0  0  0  0  0  0  0
   -1.5615   -0.0464   -2.1159 C   0  0  0  0  0  0  0  0  0  0  0  0
   -2.5741   -1.0268   -2.6027 C   0  0  0  0  0  0  0  0  0  0  0  0
   -4.0114   -0.8831   -2.3868 C   0  0  0  0  0  0  0  0  0  0  0  0
   -2.1435   -2.1423   -3.4105 C   0  0  0  0  0  0  0  0  0  0  0  0
   -4.9344   -1.7791   -2.9430 C   0  0  0  0  0  0  0  0  0  0  0  0
   -3.0801   -3.0578   -3.9549 C   0  0  0  0  0  0  0  0  0  0  0  0
   -4.4916   -2.8797   -3.7462 C   0  0  0  0  0  0  0  0  0  0  0  0
    5.9488    3.1477   -1.7083 C   0  0  0  0  0  0  0  0  0  0  0  0
    6.6156    2.0011   -2.2390 C   0  0  0  0  0  0  0  0  0  0  0  0
    5.8734    0.9189   -2.4246 C   0  0  0  0  0  0  0  0  0  0  0  0
    4.4842    0.9063   -2.1734 C   0  0  0  0  0  0  0  0  0  0  0  0
    3.8301    2.0424   -1.6549 C   0  0  0  0  0  0  0  0  0  0  0  0
    4.5713    3.1971   -1.4486 C   0  0  0  0  0  0  0  0  0  0  0  0
    6.7247    4.0854   -1.4474 N   0  0  0  0  0  0  0  0  0  0  0  0
    6.2618    5.2710   -0.9684 C   0  0  0  0  0  0  0  0  0  0  0  0
    4.9846    5.4195   -0.7827 C   0  0  0  0  0  0  0  0  0  0  0  0
    7.1595    6.2987   -0.6227 C   0  0  0  0  0  0  0  0  0  0  0  0
    4.0535    4.4452   -0.9836 C   0  0  0  0  0  0  0  0  0  0  0  0
    2.4400    2.0048   -1.3081 C   0  0  0  0  0  0  0  0  0  0  0  0
    1.6017    0.9304   -1.3282 C   0  0  0  0  0  0  0  0  0  0  0  0
   -3.9824   -0.6033    0.8446 O   0  0  0  0  0  0  0  0  0  0  0  0
   -5.4378   -1.5679    2.4467 H   0  0  0  0  0  0  0  0  0  0  0  0
   -0.9825   -2.9562    3.2964 H   0  0  0  0  0  0  0  0  0  0  0  0
   -3.5645   -4.4559    7.0186 H   0  0  0  0  0  0  0  0  0  0  0  0
   -6.3232   -2.4836    4.3866 H   0  0  0  0  0  0  0  0  0  0  0  0
   -1.0488   -4.2650    4.8097 H   0  0  0  0  0  0  0  0  0  0  0  0
   -2.2313    0.0040    0.2847 H   0  0  0  0  0  0  0  0  0  0  0  0
    0.0300   -1.1509   -0.9719 H   0  0  0  0  0  0  0  0  0  0  0  0
   -0.8901    0.0098   -2.9631 H   0  0  0  0  0  0  0  0  0  0  0  0
   -2.0790    0.8627   -1.9078 H   0  0  0  0  0  0  0  0  0  0  0  0
   -4.3825   -0.0674   -1.7674 H   0  0  0  0  0  0  0  0  0  0  0  0
   -1.0556   -2.3075   -3.5604 H   0  0  0  0  0  0  0  0  0  0  0  0
   -5.9947   -1.6770   -2.7482 H   0  0  0  0  0  0  0  0  0  0  0  0
   -2.7513   -3.9138   -4.5547 H   0  0  0  0  0  0  0  0  0  0  0  0
   -5.1833   -3.5604   -4.1740 H   0  0  0  0  0  0  0  0  0  0  0  0
    7.6376    1.9489   -2.4030 H   0  0  0  0  0  0  0  0  0  0  0  0
    6.3184   -0.0437   -2.7305 H   0  0  0  0  0  0  0  0  0  0  0  0
    3.9109   -0.0471   -2.3761 H   0  0  0  0  0  0  0  0  0  0  0  0
    6.8864    7.1692   -1.1019 H   0  0  0  0  0  0  0  0  0  0  0  0
    6.9603    6.6350    0.4496 H   0  0  0  0  0  0  0  0  0  0  0  0
    8.1877    6.0044   -0.7077 H   0  0  0  0  0  0  0  0  0  0  0  0
    2.9029    4.7715   -0.6685 H   0  0  0  0  0  0  0  0  0  0  0  0
    1.9861    2.9257   -1.0291 H   0  0  0  0  0  0  0  0  0  0  0  0
    4.5368    6.3847   -0.1848 H   0  0  0  0  0  0  0  0  0  0  0  0
    1.8935   -0.0008   -1.7968 H   0  0  0  0  0  0  0  0  0  0  0  0
  1  2  2  0
  1  3  1  0
  1 15  1  0
  3  4  1  0
  3  8  2  0
  4  5  1  0
  4 39  2  0
  5  6  1  0
  5 40  1  0
  6  7  2  0
  6 13  1  0
  7  8  1  0
  7  9  1  0
  8 41  1  0
  9 10  2  0
  9 14  1  0
 10 11  1  0
 10 42  1  0
 11 12  1  0
 11 13  2  0
 13 43  1  0
 14 44  1  0
 15 16  1  0
 15 45  1  0
 16 17  1  0
 16 19  1  0
 16 46  1  0
 17 18  2  0
 17 38  1  0
 19 20  1  0
 19 47  1  0
 19 48  1  0
 20 21  2  0
 20 22  1  0
 21 23  1  0
 21 49  1  0
 22 24  2  0
 22 50  1  0
 23 25  2  0
 23 51  1  0
 24 25  1  0
 24 52  1  0
 25 53  1  0
 26 27  2  0
 26 31  1  0
 26 32  1  0
 27 28  1  0
 27 54  1  0
 28 29  2  0
 28 55  1  0
 29 30  1  0
 29 56  1  0
 30 31  2  0
 30 37  1  0
 31 36  1  0
 32 33  2  0
 33 34  1  0
 33 35  1  0
 34 36  2  0
 34 62  1  0
 35 57  1  0
 35 58  1  0
 35 59  1  0
 36 60  1  0
 37 38  2  3
 37 61  1  0
 38 63  1  0
M  END
>  <template_idx>  (4) 
4cra_ligand

>  <smiles>  (4) 
Cc1ccc2c(C=CC(=O)C(Cc3ccccc3)NC(=O)c3cc4c(O)cccc4[nH]c3=O)cccc2n1

>  <qed>  (4) 
0.27851181853339546

$$$$
sample3
     RDKit          3D

 63 67  0  0  0  0  0  0  0  0999 V2000
   -1.1841   -1.5744    0.6171 C   0  0  0  0  0  0  0  0  0  0  0  0
   -0.8518   -2.4726   -0.0247 O   0  0  0  0  0  0  0  0  0  0  0  0
   -2.0745   -1.8751    1.7935 C   0  0  0  0  0  0  0  0  0  0  0  0
   -3.1500   -1.0884    2.0808 C   0  0  0  0  0  0  0  0  0  0  0  0
   -4.0071   -1.3748    3.1339 C   0  0  0  0  0  0  0  0  0  0  0  0
   -3.7657   -2.4253    3.9724 C   0  0  0  0  0  0  0  0  0  0  0  0
   -2.6555   -3.2005    3.7272 C   0  0  0  0  0  0  0  0  0  0  0  0
   -1.8555   -2.9675    2.5951 C   0  0  0  0  0  0  0  0  0  0  0  0
   -2.3651   -4.2332    4.6404 C   0  0  0  0  0  0  0  0  0  0  0  0
   -3.1675   -4.3844    5.7115 C   0  0  0  0  0  0  0  0  0  0  0  0
   -4.3302   -3.6375    5.9122 C   0  0  0  0  0  0  0  0  0  0  0  0
   -4.9952   -3.8894    6.7285 H   0  0  0  0  0  0  0  0  0  0  0  0
   -4.6142   -2.6937    5.0436 C   0  0  0  0  0  0  0  0  0  0  0  0
   -1.4378   -4.8463    4.5604 H   0  0  0  0  0  0  0  0  0  0  0  0
   -0.7376   -0.3347    0.4126 N   0  0  0  0  0  0  0  0  0  0  0  0
   -0.3771    0.0108   -0.9144 C   0  0  0  0  0  0  0  0  0  0  0  0
    0.4589    1.2649   -0.8713 C   0  0  0  0  0  0  0  0  0  0  0  0
    0.4366    2.0367    0.0549 O   0  0  0  0  0  0  0  0  0  0  0  0
   -1.6954    0.2241   -1.8379 C   0  0  0  0  0  0  0  0  0  0  0  0
   -2.6426   -0.9292   -2.2412 C   0  0  0  0  0  0  0  0  0  0  0  0
   -6.0119   -1.8093   -2.2603 H   0  0  0  0  0  0  0  0  0  0  0  0
   -2.1590   -2.0441   -2.9400 C   0  0  0  0  0  0  0  0  0  0  0  0
   -4.9676   -1.9573   -2.4644 C   0  0  0  0  0  0  0  0  0  0  0  0
   -3.0399   -3.0904   -3.3898 C   0  0  0  0  0  0  0  0  0  0  0  0
   -4.4392   -3.0617   -3.1627 C   0  0  0  0  0  0  0  0  0  0  0  0
    5.8853    3.2108   -1.5922 C   0  0  0  0  0  0  0  0  0  0  0  0
    6.4170    1.9286   -1.5476 C   0  0  0  0  0  0  0  0  0  0  0  0
    5.5577    0.9138   -1.5678 C   0  0  0  0  0  0  0  0  0  0  0  0
    4.1735    1.1333   -1.7292 C   0  0  0  0  0  0  0  0  0  0  0  0
    3.6720    2.3734   -1.8938 C   0  0  0  0  0  0  0  0  0  0  0  0
    4.5424    3.4542   -1.7657 C   0  0  0  0  0  0  0  0  0  0  0  0
    6.7023    4.1572   -1.5075 N   0  0  0  0  0  0  0  0  0  0  0  0
    6.2839    5.4382   -1.3545 C   0  0  0  0  0  0  0  0  0  0  0  0
    5.0100    5.7287   -1.6002 C   0  0  0  0  0  0  0  0  0  0  0  0
    7.0844    6.3349   -0.8930 N   0  0  0  0  0  0  0  0  0  0  0  0
    4.0863    4.7585   -1.8296 C   0  0  0  0  0  0  0  0  0  0  0  0
    2.1477    2.5937   -2.0859 C   0  0  0  0  0  0  0  0  0  0  0  0
    1.2430    1.4163   -1.9634 N   0  0  0  0  0  0  0  0  0  0  0  0
   -3.3218   -0.1826    1.4536 H   0  0  0  0  0  0  0  0  0  0  0  0
   -4.8652   -0.7347    3.3017 H   0  0  0  0  0  0  0  0  0  0  0  0
   -1.0344   -3.6227    2.3475 H   0  0  0  0  0  0  0  0  0  0  0  0
   -2.8995   -5.2943    6.6120 O   0  0  0  0  0  0  0  0  0  0  0  0
   -5.5402   -2.1454    5.1509 H   0  0  0  0  0  0  0  0  0  0  0  0
   -2.1090   -5.5609    6.6489 H   0  0  0  0  0  0  0  0  0  0  0  0
   -0.4419    0.2429    1.0566 H   0  0  0  0  0  0  0  0  0  0  0  0
    0.1529   -0.8396   -1.3243 H   0  0  0  0  0  0  0  0  0  0  0  0
   -1.3050    0.5732   -2.7365 H   0  0  0  0  0  0  0  0  0  0  0  0
   -2.2903    0.9770   -1.3030 H   0  0  0  0  0  0  0  0  0  0  0  0
   -4.6577    0.1313   -1.4346 F   0  0  0  0  0  0  0  0  0  0  0  0
   -1.0705   -2.1133   -3.1499 F   0  0  0  0  0  0  0  0  0  0  0  0
   -4.1110   -0.9663   -2.0316 C   0  0  0  0  0  0  0  0  0  0  0  0
   -2.6498   -3.9296   -3.9389 H   0  0  0  0  0  0  0  0  0  0  0  0
   -5.1138   -3.8098   -3.4965 H   0  0  0  0  0  0  0  0  0  0  0  0
    7.4706    1.7367   -1.4695 H   0  0  0  0  0  0  0  0  0  0  0  0
    5.8611   -0.1329   -1.4098 H   0  0  0  0  0  0  0  0  0  0  0  0
    3.3543    0.0412   -1.6540 F   0  0  0  0  0  0  0  0  0  0  0  0
    4.6375    6.8210   -1.5749 H   0  0  0  0  0  0  0  0  0  0  0  0
    6.7698    7.2778   -0.7033 H   0  0  0  0  0  0  0  0  0  0  0  0
    7.9693    6.0572   -0.7211 H   0  0  0  0  0  0  0  0  0  0  0  0
    3.0678    5.0915   -1.9789 H   0  0  0  0  0  0  0  0  0  0  0  0
    1.7591    3.4148   -1.4335 H   0  0  0  0  0  0  0  0  0  0  0  0
    2.0077    3.0789   -3.0371 H   0  0  0  0  0  0  0  0  0  0  0  0
    1.1841    0.8006   -2.7207 H   0  0  0  0  0  0  0  0  0  0  0  0
  1  2  2  0
  1  3  1  0
  1 15  1  0
  3  4  2  0
  3  8  1  0
  4  5  1  0
  4 39  1  0
  5  6  2  0
  5 40  1  0
  6  7  1  0
  6 13  1  0
  7  8  2  0
  7  9  1  0
  8 41  1  0
  9 10  2  0
  9 14  1  0
 10 11  1  0
 10 42  1  0
 11 12  1  0
 11 13  2  0
 13 43  1  0
 15 16  1  0
 15 45  1  0
 16 17  1  0
 16 19  1  0
 16 46  1  0
 17 18  2  0
 17 38  1  0
 19 20  1  0
 19 47  1  0
 19 48  1  0
 20 22  2  0
 20 51  1  0
 21 23  1  0
 22 24  1  0
 22 50  1  0
 23 25  1  0
 23 51  2  0
 24 25  2  0
 24 52  1  0
 25 53  1  0
 26 27  2  0
 26 31  1  0
 26 32  1  0
 27 28  1  0
 27 54  1  0
 28 29  2  0
 28 55  1  0
 29 30  1  0
 29 56  1  0
 30 31  2  0
 30 37  1  0
 31 36  1  0
 32 33  2  0
 33 34  1  0
 33 35  1  0
 34 36  2  0
 34 57  1  0
 35 58  1  0
 35 59  1  0
 36 60  1  0
 37 38  1  0
 37 61  1  0
 37 62  1  0
 38 63  1  0
 42 44  1  0
 49 51  1  0
M  END
>  <template_idx>  (5) 
4cra_ligand

>  <smiles>  (5) 
Nc1ccc2c(CNC(=O)C(Cc3c(F)cccc3F)NC(=O)c3ccc4ccc(O)cc4c3)c(F)ccc2n1

>  <qed>  (5) 
0.2359897878465408

$$$$
sample4
     RDKit          3D

 63 67  0  0  0  0  0  0  0  0999 V2000
   -1.1930   -1.4949    0.7658 C   0  0  0  0  0  0  0  0  0  0  0  0
   -0.5821   -2.3863    0.3127 O   0  0  0  0  0  0  0  0  0  0  0  0
   -2.1633   -1.8465    1.8713 C   0  0  0  0  0  0  0  0  0  0  0  0
   -3.3736   -1.2379    1.9561 C   0  0  0  0  0  0  0  0  0  0  0  0
   -4.2589   -1.5221    2.9619 C   0  0  0  0  0  0  0  0  0  0  0  0
   -3.9242   -2.4414    3.9152 C   0  0  0  0  0  0  0  0  0  0  0  0
   -2.7121   -3.0491    3.8639 C   0  0  0  0  0  0  0  0  0  0  0  0
   -1.8720   -2.8102    2.8025 C   0  0  0  0  0  0  0  0  0  0  0  0
   -2.3727   -3.9429    4.9160 C   0  0  0  0  0  0  0  0  0  0  0  0
   -3.2492   -4.1635    5.9135 C   0  0  0  0  0  0  0  0  0  0  0  0
   -4.4951   -3.5815    5.9265 C   0  0  0  0  0  0  0  0  0  0  0  0
   -5.1886   -3.7772    6.7402 H   0  0  0  0  0  0  0  0  0  0  0  0
   -4.8236   -2.7530    4.9243 C   0  0  0  0  0  0  0  0  0  0  0  0
   -1.1242   -4.5175    4.9880 C   0  0  0  0  0  0  0  0  0  0  0  0
   -1.0095   -0.2503    0.3794 N   0  0  0  0  0  0  0  0  0  0  0  0
   -0.4951    0.0386   -0.9289 C   0  0  0  0  0  0  0  0  0  0  0  0
    0.3201    1.2986   -0.9014 C   0  0  0  0  0  0  0  0  0  0  0  0
    0.1281    2.1363   -0.0279 O   0  0  0  0  0  0  0  0  0  0  0  0
   -1.6264    0.1836   -2.0443 C   0  0  0  0  0  0  0  0  0  0  0  0
   -2.5334   -0.9716   -2.3981 C   0  0  0  0  0  0  0  0  0  0  0  0
   -3.9656   -0.8613   -2.2604 C   0  0  0  0  0  0  0  0  0  0  0  0
   -2.0478   -2.1685   -3.0007 C   0  0  0  0  0  0  0  0  0  0  0  0
   -4.8170   -1.9073   -2.6436 C   0  0  0  0  0  0  0  0  0  0  0  0
   -2.9311   -3.2133   -3.4071 C   0  0  0  0  0  0  0  0  0  0  0  0
   -4.3303   -3.1098   -3.2361 C   0  0  0  0  0  0  0  0  0  0  0  0
    5.8098    3.1235   -1.4287 C   0  0  0  0  0  0  0  0  0  0  0  0
    6.3089    1.8197   -1.3044 C   0  0  0  0  0  0  0  0  0  0  0  0
    5.4251    0.8426   -1.3267 C   0  0  0  0  0  0  0  0  0  0  0  0
    4.0398    1.0471   -1.5197 C   0  0  0  0  0  0  0  0  0  0  0  0
    3.5832    2.3247   -1.6943 C   0  0  0  0  0  0  0  0  0  0  0  0
    4.4822    3.3786   -1.6210 C   0  0  0  0  0  0  0  0  0  0  0  0
    6.6451    4.0327   -1.2670 N   0  0  0  0  0  0  0  0  0  0  0  0
    6.2835    5.3341   -1.2760 C   0  0  0  0  0  0  0  0  0  0  0  0
    5.0391    5.6330   -1.5964 C   0  0  0  0  0  0  0  0  0  0  0  0
    7.1577    6.2233   -1.0001 N   0  0  0  0  0  0  0  0  0  0  0  0
    4.0882    4.6944   -1.7608 C   0  0  0  0  0  0  0  0  0  0  0  0
    2.1039    2.6083   -1.9294 C   0  0  0  0  0  0  0  0  0  0  0  0
    1.2478    1.4123   -1.8614 N   0  0  0  0  0  0  0  0  0  0  0  0
   -3.6160   -0.4584    1.1932 H   0  0  0  0  0  0  0  0  0  0  0  0
   -5.1943   -0.9809    2.9897 H   0  0  0  0  0  0  0  0  0  0  0  0
   -0.9403   -3.3289    2.6858 H   0  0  0  0  0  0  0  0  0  0  0  0
   -2.9807   -4.7830    6.7905 H   0  0  0  0  0  0  0  0  0  0  0  0
   -5.8073   -2.3306    4.8966 H   0  0  0  0  0  0  0  0  0  0  0  0
   -0.1514   -4.9297    5.2384 N   0  0  0  0  0  0  0  0  0  0  0  0
   -0.9267    0.4654    0.9906 H   0  0  0  0  0  0  0  0  0  0  0  0
    0.1287   -0.8265   -1.1763 H   0  0  0  0  0  0  0  0  0  0  0  0
   -1.1079    0.4106   -2.9673 H   0  0  0  0  0  0  0  0  0  0  0  0
   -2.2477    0.9980   -1.6618 H   0  0  0  0  0  0  0  0  0  0  0  0
   -4.3951    0.0749   -1.9067 H   0  0  0  0  0  0  0  0  0  0  0  0
   -0.9730   -2.2831   -3.1454 H   0  0  0  0  0  0  0  0  0  0  0  0
   -5.8709   -1.7958   -2.5419 H   0  0  0  0  0  0  0  0  0  0  0  0
   -2.5372   -4.1090   -3.8672 H   0  0  0  0  0  0  0  0  0  0  0  0
   -4.9838   -3.8744   -3.5424 H   0  0  0  0  0  0  0  0  0  0  0  0
    7.3570    1.6137   -1.1646 H   0  0  0  0  0  0  0  0  0  0  0  0
    5.7328   -0.2002   -1.1707 H   0  0  0  0  0  0  0  0  0  0  0  0
    3.3425    0.1386   -1.4901 H   0  0  0  0  0  0  0  0  0  0  0  0
    4.6924    6.7329   -1.6900 H   0  0  0  0  0  0  0  0  0  0  0  0
    6.8366    7.1879   -0.8763 H   0  0  0  0  0  0  0  0  0  0  0  0
    8.0009    5.8751   -0.7236 H   0  0  0  0  0  0  0  0  0  0  0  0
    3.0636    5.0211   -1.8737 H   0  0  0  0  0  0  0  0  0  0  0  0
    1.9998    3.0987   -2.9265 H   0  0  0  0  0  0  0  0  0  0  0  0
    1.7375    3.3638   -1.2234 H   0  0  0  0  0  0  0  0  0  0  0  0
    1.2669    0.7943   -2.6398 H   0  0  0  0  0  0  0  0  0  0  0  0
  1  2  2  0
  1  3  1  0
  1 15  1  0
  3  4  2  0
  3  8  1  0
  4  5  1  0
  4 39  1  0
  5  6  2  0
  5 40  1  0
  6  7  1  0
  6 13  1  0
  7  8  2  0
  7  9  1  0
  8 41  1  0
  9 10  2  0
  9 14  1  0
 10 11  1  0
 10 42  1  0
 11 12  1  0
 11 13  2  0
 13 43  1  0
 14 44  3  0
 15 16  1  0
 15 45  1  0
 16 17  1  0
 16 19  1  0
 16 46  1  0
 17 18  2  0
 17 38  1  0
 19 20  1  0
 19 47  1  0
 19 48  1  0
 20 21  2  0
 20 22  1  0
 21 23  1  0
 21 49  1  0
 22 24  2  0
 22 50  1  0
 23 25  2  0
 23 51  1  0
 24 25  1  0
 24 52  1  0
 25 53  1  0
 26 27  2  0
 26 31  1  0
 26 32  1  0
 27 28  1  0
 27 54  1  0
 28 29  2  0
 28 55  1  0
 29 30  1  0
 29 56  1  0
 30 31  2  0
 30 37  1  0
 31 36  1  0
 32 33  2  0
 33 34  1  0
 33 35  1  0
 34 36  2  0
 34 57  1  0
 35 58  1  0
 35 59  1  0
 36 60  1  0
 37 38  1  0
 37 61  1  0
 37 62  1  0
 38 63  1  0
M  END
>  <template_idx>  (6) 
4cra_ligand

>  <smiles>  (6) 
N#Cc1cccc2ccc(C(=O)NC(Cc3ccccc3)C(=O)NCc3cccc4nc(N)ccc34)cc12

>  <qed>  (6) 
0.3044864036969683

$$$$
sample5
     RDKit          3D

 63 67  0  0  0  0  0  0  0  0999 V2000
   -1.1401   -1.6171    0.7800 C   0  0  0  0  0  0  0  0  0  0  0  0
   -0.4335   -2.4674    0.3955 O   0  0  0  0  0  0  0  0  0  0  0  0
   -2.1134   -1.9450    1.8975 C   0  0  0  0  0  0  0  0  0  0  0  0
   -3.2899   -1.2561    2.0808 C   0  0  0  0  0  0  0  0  0  0  0  0
   -4.1438   -1.5594    3.0983 C   0  0  0  0  0  0  0  0  0  0  0  0
   -3.8727   -2.5609    3.9929 C   0  0  0  0  0  0  0  0  0  0  0  0
   -2.6771   -3.2559    3.8356 C   0  0  0  0  0  0  0  0  0  0  0  0
   -1.8634   -2.9916    2.7584 C   0  0  0  0  0  0  0  0  0  0  0  0
   -2.3845   -4.2497    4.8095 C   0  0  0  0  0  0  0  0  0  0  0  0
   -3.2246   -4.4630    5.8538 C   0  0  0  0  0  0  0  0  0  0  0  0
   -4.4406   -3.7684    5.9791 C   0  0  0  0  0  0  0  0  0  0  0  0
   -5.0976   -3.9879    6.8036 H   0  0  0  0  0  0  0  0  0  0  0  0
   -4.7452   -2.8394    5.0384 C   0  0  0  0  0  0  0  0  0  0  0  0
   -1.2514   -4.9282    4.7016 O   0  0  0  0  0  0  0  0  0  0  0  0
   -1.0681   -0.3579    0.3633 N   0  0  0  0  0  0  0  0  0  0  0  0
   -0.4810   -0.0176   -0.8944 C   0  0  0  0  0  0  0  0  0  0  0  0
    0.3907    1.2154   -0.8349 C   0  0  0  0  0  0  0  0  0  0  0  0
    0.1398    2.0775    0.0053 O   0  0  0  0  0  0  0  0  0  0  0  0
   -1.6045    0.2642   -1.9785 C   0  0  0  0  0  0  0  0  0  0  0  0
   -2.4904   -0.8333   -2.4561 C   0  0  0  0  0  0  0  0  0  0  0  0
   -3.9220   -0.8042   -2.2363 C   0  0  0  0  0  0  0  0  0  0  0  0
   -2.0045   -1.9095   -3.2650 C   0  0  0  0  0  0  0  0  0  0  0  0
   -4.7630   -1.8058   -2.7592 C   0  0  0  0  0  0  0  0  0  0  0  0
   -2.8651   -2.9250   -3.7920 C   0  0  0  0  0  0  0  0  0  0  0  0
   -4.2671   -2.8857   -3.5552 C   0  0  0  0  0  0  0  0  0  0  0  0
    5.9072    3.3055   -1.2964 C   0  0  0  0  0  0  0  0  0  0  0  0
    6.4728    2.0871   -1.2009 C   0  0  0  0  0  0  0  0  0  0  0  0
    5.6856    1.0443   -1.2718 C   0  0  0  0  0  0  0  0  0  0  0  0
    4.3025    1.1192   -1.5001 C   0  0  0  0  0  0  0  0  0  0  0  0
    3.7439    2.3555   -1.6206 C   0  0  0  0  0  0  0  0  0  0  0  0
    4.5381    3.4888   -1.4701 C   0  0  0  0  0  0  0  0  0  0  0  0
    6.7219    4.4256   -1.1397 C   0  0  0  0  0  0  0  0  0  0  0  0
    6.1880    5.6640   -1.0840 C   0  0  0  0  0  0  0  0  0  0  0  0
    4.8688    5.8109   -1.2429 C   0  0  0  0  0  0  0  0  0  0  0  0
    6.7636    6.5169   -0.9687 H   0  0  0  0  0  0  0  0  0  0  0  0
    4.0387    4.7449   -1.5197 C   0  0  0  0  0  0  0  0  0  0  0  0
    2.2177    2.4842   -1.8614 C   0  0  0  0  0  0  0  0  0  0  0  0
    1.4080    1.2587   -1.7092 N   0  0  0  0  0  0  0  0  0  0  0  0
   -3.5016   -0.4261    1.3557 H   0  0  0  0  0  0  0  0  0  0  0  0
   -5.0426   -0.9744    3.1853 H   0  0  0  0  0  0  0  0  0  0  0  0
   -0.9756   -3.5853    2.5331 H   0  0  0  0  0  0  0  0  0  0  0  0
   -2.9777   -5.2213    6.5901 H   0  0  0  0  0  0  0  0  0  0  0  0
   -5.6402   -2.2791    5.1325 H   0  0  0  0  0  0  0  0  0  0  0  0
   -0.7752   -4.7490    4.0710 H   0  0  0  0  0  0  0  0  0  0  0  0
   -1.2049    0.4235    0.9394 H   0  0  0  0  0  0  0  0  0  0  0  0
    0.1065   -0.9219   -1.1763 H   0  0  0  0  0  0  0  0  0  0  0  0
   -1.0636    0.5678   -2.8687 H   0  0  0  0  0  0  0  0  0  0  0  0
   -2.1990    1.0771   -1.5268 H   0  0  0  0  0  0  0  0  0  0  0  0
   -4.3184    0.0431   -1.6833 H   0  0  0  0  0  0  0  0  0  0  0  0
   -0.9273   -1.9672   -3.4631 H   0  0  0  0  0  0  0  0  0  0  0  0
   -5.8114   -1.7754   -2.5515 H   0  0  0  0  0  0  0  0  0  0  0  0
   -2.4567   -3.7316   -4.3879 H   0  0  0  0  0  0  0  0  0  0  0  0
   -4.8964   -3.6164   -3.9416 H   0  0  0  0  0  0  0  0  0  0  0  0
    7.5285    1.9673   -1.0251 H   0  0  0  0  0  0  0  0  0  0  0  0
    6.0887    0.0145   -1.1681 H   0  0  0  0  0  0  0  0  0  0  0  0
    3.6777    0.1630   -1.5897 H   0  0  0  0  0  0  0  0  0  0  0  0
    4.2156    6.9586   -1.0062 O   0  0  0  0  0  0  0  0  0  0  0  0
    4.6841    7.6132   -0.9640 H   0  0  0  0  0  0  0  0  0  0  0  0
    7.7741    4.3293   -1.0506 H   0  0  0  0  0  0  0  0  0  0  0  0
    2.9891    5.0318   -1.6507 H   0  0  0  0  0  0  0  0  0  0  0  0
    2.0910    2.8659   -2.9040 H   0  0  0  0  0  0  0  0  0  0  0  0
    1.8189    3.2361   -1.2120 H   0  0  0  0  0  0  0  0  0  0  0  0
    1.5728    0.5228   -2.3743 H   0  0  0  0  0  0  0  0  0  0  0  0
  1  2  2  0
  1  3  1  0
  1 15  1  0
  3  4  2  0
  3  8  1  0
  4  5  1  0
  4 39  1  0
  5  6  2  0
  5 40  1  0
  6  7  1  0
  6 13  1  0
  7  8  2  0
  7  9  1  0
  8 41  1  0
  9 10  2  0
  9 14  1  0
 10 11  1  0
 10 42  1  0
 11 12  1  0
 11 13  2  0
 13 43  1  0
 14 44  1  0
 15 16  1  0
 15 45  1  0
 16 17  1  0
 16 19  1  0
 16 46  1  0
 17 18  2  0
 17 38  1  0
 19 20  1  0
 19 47  1  0
 19 48  1  0
 20 21  2  0
 20 22  1  0
 21 23  1  0
 21 49  1  0
 22 24  2  0
 22 50  1  0
 23 25  2  0
 23 51  1  0
 24 25  1  0
 24 52  1  0
 25 53  1  0
 26 27  2  0
 26 31  1  0
 26 32  1  0
 27 28  1  0
 27 54  1  0
 28 29  2  0
 28 55  1  0
 29 30  1  0
 29 56  1  0
 30 31  2  0
 30 37  1  0
 31 36  1  0
 32 33  2  0
 32 59  1  0
 33 34  1  0
 33 35  1  0
 34 36  2  0
 34 57  1  0
 36 60  1  0
 37 38  1  0
 37 61  1  0
 37 62  1  0
 38 63  1  0
 57 58  1  0
M  END
>  <template_idx>  (7) 
4cra_ligand

>  <smiles>  (7) 
O=C(NC(Cc1ccccc1)C(=O)NCc1cccc2ccc(O)cc12)c1ccc2cccc(O)c2c1

>  <qed>  (7) 
0.25626430946651685

$$$$
sample6
     RDKit          3D

 63 68  0  0  0  0  0  0  0  0999 V2000
   -0.9419   -1.2318    1.3815 C   0  0  0  0  0  0  0  0  0  0  0  0
   -0.1220   -1.8755    1.3507 H   0  0  0  0  0  0  0  0  0  0  0  0
   -1.9772   -1.6743    2.3470 C   0  0  0  0  0  0  0  0  0  0  0  0
   -3.1574   -1.0139    2.5508 C   0  0  0  0  0  0  0  0  0  0  0  0
   -4.0703   -1.4521    3.4493 C   0  0  0  0  0  0  0  0  0  0  0  0
   -3.8287   -2.5304    4.2357 C   0  0  0  0  0  0  0  0  0  0  0  0
   -2.6425   -3.2102    4.0495 C   0  0  0  0  0  0  0  0  0  0  0  0
   -1.7639   -2.8203    3.0594 C   0  0  0  0  0  0  0  0  0  0  0  0
   -2.3731   -4.2956    4.9146 C   0  0  0  0  0  0  0  0  0  0  0  0
   -3.2478   -4.6072    5.8718 C   0  0  0  0  0  0  0  0  0  0  0  0
   -4.4386   -3.9144    6.0625 C   0  0  0  0  0  0  0  0  0  0  0  0
   -5.0873   -4.1598    6.9019 H   0  0  0  0  0  0  0  0  0  0  0  0
   -4.7303   -2.9019    5.2235 C   0  0  0  0  0  0  0  0  0  0  0  0
   -1.2072   -4.9483    4.7427 O   0  0  0  0  0  0  0  0  0  0  0  0
   -0.9907   -0.1255    0.6376 C   0  0  0  0  0  0  0  0  0  0  0  0
   -0.4568   -0.1734   -0.6753 C   0  0  0  0  0  0  0  0  0  0  0  0
    0.9198    0.4210   -0.9649 C   0  0  0  0  0  0  0  0  0  0  0  0
    1.8208    0.3581   -0.0930 O   0  0  0  0  0  0  0  0  0  0  0  0
   -1.3263    0.4648   -1.7433 C   0  0  0  0  0  0  0  0  0  0  0  0
   -2.2775   -0.4691   -2.3742 C   0  0  0  0  0  0  0  0  0  0  0  0
   -3.6200   -0.5767   -1.9548 C   0  0  0  0  0  0  0  0  0  0  0  0
   -1.9188   -1.2620   -3.4511 C   0  0  0  0  0  0  0  0  0  0  0  0
   -4.5526   -1.4300   -2.6298 C   0  0  0  0  0  0  0  0  0  0  0  0
   -2.8279   -2.0915   -4.1012 C   0  0  0  0  0  0  0  0  0  0  0  0
   -4.1625   -2.1861   -3.7102 C   0  0  0  0  0  0  0  0  0  0  0  0
    5.5431    3.0187   -1.6337 C   0  0  0  0  0  0  0  0  0  0  0  0
    6.1022    1.7565   -1.6036 C   0  0  0  0  0  0  0  0  0  0  0  0
    5.2739    0.7236   -1.7832 C   0  0  0  0  0  0  0  0  0  0  0  0
    3.8967    0.8579   -2.0580 C   0  0  0  0  0  0  0  0  0  0  0  0
    3.3442    2.0902   -2.0813 C   0  0  0  0  0  0  0  0  0  0  0  0
    4.1863    3.2028   -1.8610 C   0  0  0  0  0  0  0  0  0  0  0  0
    6.3247    3.9827   -1.3553 N   0  0  0  0  0  0  0  0  0  0  0  0
    5.8734    5.2159   -1.2150 C   0  0  0  0  0  0  0  0  0  0  0  0
    4.5952    5.4800   -1.5136 C   0  0  0  0  0  0  0  0  0  0  0  0
    6.6862    6.1784   -0.7896 N   0  0  0  0  0  0  0  0  0  0  0  0
    3.7186    4.4946   -1.8466 C   0  0  0  0  0  0  0  0  0  0  0  0
    1.8442    2.2784   -2.2940 C   0  0  0  0  0  0  0  0  0  0  0  0
    0.9250    0.9791   -2.2967 C   0  0  0  0  0  0  0  0  0  0  0  0
   -3.3543   -0.0743    1.9566 H   0  0  0  0  0  0  0  0  0  0  0  0
   -4.9694   -0.8650    3.5491 H   0  0  0  0  0  0  0  0  0  0  0  0
   -0.8687   -3.4109    2.8541 H   0  0  0  0  0  0  0  0  0  0  0  0
   -3.0006   -5.4218    6.5869 H   0  0  0  0  0  0  0  0  0  0  0  0
   -5.6274   -2.3343    5.3486 H   0  0  0  0  0  0  0  0  0  0  0  0
   -1.0102   -5.4951    5.3391 H   0  0  0  0  0  0  0  0  0  0  0  0
   -1.4251    0.8476    0.9385 H   0  0  0  0  0  0  0  0  0  0  0  0
   -0.3302   -1.3122   -0.8915 H   0  0  0  0  0  0  0  0  0  0  0  0
    1.2182    0.4399   -3.1772 H   0  0  0  0  0  0  0  0  0  0  0  0
   -1.9604    1.3229   -1.3717 H   0  0  0  0  0  0  0  0  0  0  0  0
   -3.9495   -0.0099   -1.0905 H   0  0  0  0  0  0  0  0  0  0  0  0
   -0.6409   -1.3416   -3.8470 F   0  0  0  0  0  0  0  0  0  0  0  0
   -5.5853   -1.5133   -2.2922 H   0  0  0  0  0  0  0  0  0  0  0  0
   -2.4905   -2.6706   -4.9607 H   0  0  0  0  0  0  0  0  0  0  0  0
   -4.8582   -2.8119   -4.2331 H   0  0  0  0  0  0  0  0  0  0  0  0
    7.1596    1.5883   -1.4402 H   0  0  0  0  0  0  0  0  0  0  0  0
    5.6786   -0.2962   -1.7513 H   0  0  0  0  0  0  0  0  0  0  0  0
    3.2932   -0.0741   -2.2795 H   0  0  0  0  0  0  0  0  0  0  0  0
    4.1748    6.5158   -1.4316 H   0  0  0  0  0  0  0  0  0  0  0  0
    6.3072    7.0661   -0.5417 H   0  0  0  0  0  0  0  0  0  0  0  0
    7.5850    5.8841   -0.5565 H   0  0  0  0  0  0  0  0  0  0  0  0
    2.6685    4.7025   -1.9655 H   0  0  0  0  0  0  0  0  0  0  0  0
    1.6760    2.7576   -3.2425 H   0  0  0  0  0  0  0  0  0  0  0  0
    1.4335    2.9581   -1.4998 H   0  0  0  0  0  0  0  0  0  0  0  0
   -0.4568    0.9955   -2.7495 O   0  0  0  0  0  0  0  0  0  0  0  0
  1  2  1  0
  1  3  1  0
  1 15  2  3
  3  4  2  0
  3  8  1  0
  4  5  1  0
  4 39  1  0
  5  6  2  0
  5 40  1  0
  6  7  1  0
  6 13  1  0
  7  8  2  0
  7  9  1  0
  8 41  1  0
  9 10  2  0
  9 14  1  0
 10 11  1  0
 10 42  1  0
 11 12  1  0
 11 13  2  0
 13 43  1  0
 14 44  1  0
 15 16  1  0
 15 45  1  0
 16 17  1  0
 16 19  1  0
 16 46  1  0
 17 18  2  0
 17 38  1  0
 19 20  1  0
 19 48  1  0
 19 63  1  0
 20 21  2  0
 20 22  1  0
 21 23  1  0
 21 49  1  0
 22 24  2  0
 22 50  1  0
 23 25  2  0
 23 51  1  0
 24 25  1  0
 24 52  1  0
 25 53  1  0
 26 27  2  0
 26 31  1  0
 26 32  1  0
 27 28  1  0
 27 54  1  0
 28 29  2  0
 28 55  1  0
 29 30  1  0
 29 56  1  0
 30 31  2  0
 30 37  1  0
 31 36  1  0
 32 33  2  0
 33 34  1  0
 33 35  1  0
 34 36  2  0
 34 57  1  0
 35 58  1  0
 35 59  1  0
 36 60  1  0
 37 38  1  0
 37 61  1  0
 37 62  1  0
 38 47  1  0
 38 63  1  0
M  END
>  <template_idx>  (8) 
4cra_ligand

>  <smiles>  (8) 
Nc1ccc2c(CC3OC(c4ccccc4F)C(C=Cc4ccc5cccc(O)c5c4)C3=O)cccc2n1

>  <qed>  (8) 
0.28946119376240825

$$$$
sample7
     RDKit          3D

 63 67  0  0  0  0  0  0  0  0999 V2000
   -1.0581   -1.3606    1.1344 C   0  0  0  0  0  0  0  0  0  0  0  0
   -0.1838   -1.8639    1.1484 H   0  0  0  0  0  0  0  0  0  0  0  0
   -2.0687   -1.8558    2.0259 C   0  0  0  0  0  0  0  0  0  0  0  0
   -3.3535   -1.3328    2.1220 C   0  0  0  0  0  0  0  0  0  0  0  0
   -4.1208   -1.8680    3.0377 N   0  0  0  0  0  0  0  0  0  0  0  0
   -3.7963   -2.7965    3.9750 C   0  0  0  0  0  0  0  0  0  0  0  0
   -2.5910   -3.3570    3.8528 C   0  0  0  0  0  0  0  0  0  0  0  0
   -1.7193   -2.9881    2.8482 C   0  0  0  0  0  0  0  0  0  0  0  0
   -2.1996   -4.3138    4.8025 C   0  0  0  0  0  0  0  0  0  0  0  0
   -3.0409   -4.6180    5.8262 C   0  0  0  0  0  0  0  0  0  0  0  0
   -4.2848   -4.0328    5.9314 C   0  0  0  0  0  0  0  0  0  0  0  0
   -4.8969   -4.2633    6.7520 H   0  0  0  0  0  0  0  0  0  0  0  0
   -4.6648   -3.1371    4.9655 C   0  0  0  0  0  0  0  0  0  0  0  0
   -0.9781   -4.8454    4.6905 O   0  0  0  0  0  0  0  0  0  0  0  0
   -1.1944   -0.2937    0.4078 N   0  0  0  0  0  0  0  0  0  0  0  0
   -0.4480    0.0446   -0.7979 C   0  0  0  0  0  0  0  0  0  0  0  0
    0.5477    1.2028   -0.8470 C   0  0  0  0  0  0  0  0  0  0  0  0
    0.6573    1.9206    0.1725 O   0  0  0  0  0  0  0  0  0  0  0  0
   -1.5170    0.3879   -1.9401 C   0  0  0  0  0  0  0  0  0  0  0  0
   -2.5110   -0.6714   -2.3346 C   0  0  0  0  0  0  0  0  0  0  0  0
   -3.8142   -0.7224   -1.7890 C   0  0  0  0  0  0  0  0  0  0  0  0
   -2.1793   -1.6521   -3.3253 C   0  0  0  0  0  0  0  0  0  0  0  0
   -4.7236   -1.7351   -2.1383 C   0  0  0  0  0  0  0  0  0  0  0  0
   -3.1042   -2.6781   -3.6987 C   0  0  0  0  0  0  0  0  0  0  0  0
   -4.3989   -2.7445   -3.1049 C   0  0  0  0  0  0  0  0  0  0  0  0
    5.7172    3.1470   -1.5340 C   0  0  0  0  0  0  0  0  0  0  0  0
    6.2395    1.8454   -1.3969 C   0  0  0  0  0  0  0  0  0  0  0  0
    5.3576    0.8434   -1.4289 C   0  0  0  0  0  0  0  0  0  0  0  0
    3.9864    1.0449   -1.6668 C   0  0  0  0  0  0  0  0  0  0  0  0
    3.5200    2.3214   -1.8961 C   0  0  0  0  0  0  0  0  0  0  0  0
    4.4089    3.3901   -1.8012 C   0  0  0  0  0  0  0  0  0  0  0  0
    6.5524    4.0887   -1.3420 N   0  0  0  0  0  0  0  0  0  0  0  0
    6.1099    5.3898   -1.3098 C   0  0  0  0  0  0  0  0  0  0  0  0
    4.8654    5.6683   -1.6895 C   0  0  0  0  0  0  0  0  0  0  0  0
    6.9505    6.3313   -0.6871 N   0  0  0  0  0  0  0  0  0  0  0  0
    3.9805    4.7066   -1.9658 C   0  0  0  0  0  0  0  0  0  0  0  0
    2.0498    2.5638   -2.1578 C   0  0  0  0  0  0  0  0  0  0  0  0
    1.2664    1.3542   -1.9450 N   0  0  0  0  0  0  0  0  0  0  0  0
   -3.7930   -0.3424    1.3949 O   0  0  0  0  0  0  0  0  0  0  0  0
   -5.0652   -1.4606    3.0652 H   0  0  0  0  0  0  0  0  0  0  0  0
   -0.5948   -3.5171    2.6707 O   0  0  0  0  0  0  0  0  0  0  0  0
   -2.6731   -5.2821    6.5816 H   0  0  0  0  0  0  0  0  0  0  0  0
   -5.6113   -2.6724    4.9994 H   0  0  0  0  0  0  0  0  0  0  0  0
   -0.6184   -4.5031    3.9604 H   0  0  0  0  0  0  0  0  0  0  0  0
   -2.1280    0.1512    0.4647 H   0  0  0  0  0  0  0  0  0  0  0  0
    0.1553   -0.8379   -0.9718 H   0  0  0  0  0  0  0  0  0  0  0  0
   -1.0025    0.5878   -2.8764 H   0  0  0  0  0  0  0  0  0  0  0  0
   -2.0945    1.2466   -1.5392 H   0  0  0  0  0  0  0  0  0  0  0  0
   -4.1709    0.0586   -1.1056 H   0  0  0  0  0  0  0  0  0  0  0  0
   -1.1897   -1.6317   -3.7906 H   0  0  0  0  0  0  0  0  0  0  0  0
   -5.6919   -1.7866   -1.6797 H   0  0  0  0  0  0  0  0  0  0  0  0
   -2.8376   -3.3969   -4.4539 H   0  0  0  0  0  0  0  0  0  0  0  0
   -5.0788   -3.4940   -3.3572 H   0  0  0  0  0  0  0  0  0  0  0  0
    7.2654    1.6384   -1.2219 H   0  0  0  0  0  0  0  0  0  0  0  0
    5.6954   -0.1939   -1.2605 H   0  0  0  0  0  0  0  0  0  0  0  0
    3.3052    0.1150   -1.6130 H   0  0  0  0  0  0  0  0  0  0  0  0
    4.5206    6.7267   -1.7210 H   0  0  0  0  0  0  0  0  0  0  0  0
    6.4525    7.4118   -0.5904 O   0  0  0  0  0  0  0  0  0  0  0  0
    8.0229    6.0686   -0.1922 O   0  0  0  0  0  0  0  0  0  0  0  0
    2.9945    5.0467   -2.2389 H   0  0  0  0  0  0  0  0  0  0  0  0
    1.9086    2.9012   -3.1832 H   0  0  0  0  0  0  0  0  0  0  0  0
    1.6788    3.3788   -1.5184 H   0  0  0  0  0  0  0  0  0  0  0  0
    1.1883    0.6671   -2.7195 H   0  0  0  0  0  0  0  0  0  0  0  0
  1  2  1  0
  1  3  2  3
  1 15  1  0
  3  4  1  0
  3  8  1  0
  4  5  1  0
  4 39  2  0
  5  6  1  0
  5 40  1  0
  6  7  2  0
  6 13  1  0
  7  8  1  0
  7  9  1  0
  8 41  2  0
  9 10  2  0
  9 14  1  0
 10 11  1  0
 10 42  1  0
 11 12  1  0
 11 13  2  0
 13 43  1  0
 14 44  1  0
 15 16  1  0
 15 45  1  0
 16 17  1  0
 16 19  1  0
 16 46  1  0
 17 18  2  0
 17 38  1  0
 19 20  1  0
 19 47  1  0
 19 48  1  0
 20 21  2  0
 20 22  1  0
 21 23  1  0
 21 49  1  0
 22 24  2  0
 22 50  1  0
 23 25  2  0
 23 51  1  0
 24 25  1  0
 24 52  1  0
 25 53  1  0
 26 27  2  0
 26 31  1  0
 26 32  1  0
 27 28  1  0
 27 54  1  0
 28 29  2  0
 28 55  1  0
 29 30  1  0
 29 56  1  0
 30 31  2  0
 30 37  1  0
 31 36  1  0
 32 33  2  0
 33 34  1  0
 33 35  1  0
 34 36  2  0
 34 57  1  0
 35 58  1  0
 35 59  2  0
 36 60  1  0
 37 38  1  0
 37 61  1  0
 37 62  1  0
 38 63  1  0
M  CHG  2  35   1  58  -1
M  END
>  <template_idx>  (9) 
4cra_ligand

>  <smiles>  (9) 
O=C1Nc2cccc(O)c2C(=O)C1=CNC(Cc1ccccc1)C(=O)NCc1cccc2nc([N+](=O)[O-])ccc12

>  <qed>  (9) 
0.11499725774161003

$$$$
sample8
     RDKit          3D

 63 68  0  0  0  0  0  0  0  0999 V2000
   -0.9653   -1.4062    1.1556 C   0  0  0  0  0  0  0  0  0  0  0  0
   -0.0408   -2.1103    1.0304 O   0  0  0  0  0  0  0  0  0  0  0  0
   -2.0487   -1.6700    2.2725 C   0  0  0  0  0  0  0  0  0  0  0  0
   -3.0498   -0.9951    2.3894 C   0  0  0  0  0  0  0  0  0  0  0  0
   -4.1008   -1.3677    3.3233 C   0  0  0  0  0  0  0  0  0  0  0  0
   -3.7584   -2.4337    4.1663 C   0  0  0  0  0  0  0  0  0  0  0  0
   -2.6102   -3.0211    3.9778 C   0  0  0  0  0  0  0  0  0  0  0  0
   -1.8066   -2.7150    3.0020 O   0  0  0  0  0  0  0  0  0  0  0  0
   -2.2045   -4.0146    4.8789 C   0  0  0  0  0  0  0  0  0  0  0  0
   -3.0199   -4.3279    5.9062 C   0  0  0  0  0  0  0  0  0  0  0  0
   -4.2607   -3.7403    6.0756 C   0  0  0  0  0  0  0  0  0  0  0  0
   -4.9169   -4.0622    6.8814 H   0  0  0  0  0  0  0  0  0  0  0  0
   -4.6177   -2.7981    5.2056 C   0  0  0  0  0  0  0  0  0  0  0  0
   -0.9453   -4.5556    4.6970 N   0  0  0  0  0  0  0  0  0  0  0  0
   -1.1623   -0.2856    0.4418 N   0  0  0  0  0  0  0  0  0  0  0  0
   -0.6237   -0.0308   -0.8601 C   0  0  0  0  0  0  0  0  0  0  0  0
    0.3599    0.9493   -0.9007 N   0  0  0  0  0  0  0  0  0  0  0  0
    0.3991    1.5023   -0.0264 H   0  0  0  0  0  0  0  0  0  0  0  0
   -1.7596    0.3312   -1.9036 C   0  0  0  0  0  0  0  0  0  0  0  0
   -2.6158   -0.7306   -2.5686 C   0  0  0  0  0  0  0  0  0  0  0  0
   -3.9574   -1.0211   -2.1221 C   0  0  0  0  0  0  0  0  0  0  0  0
   -2.1660   -1.4487   -3.7017 C   0  0  0  0  0  0  0  0  0  0  0  0
   -4.7573   -1.9812   -2.7800 C   0  0  0  0  0  0  0  0  0  0  0  0
   -2.9935   -2.3897   -4.3572 C   0  0  0  0  0  0  0  0  0  0  0  0
   -4.3110   -2.6752   -3.9177 C   0  0  0  0  0  0  0  0  0  0  0  0
    5.7268    3.0620   -1.5723 C   0  0  0  0  0  0  0  0  0  0  0  0
    6.2672    1.7746   -1.5749 C   0  0  0  0  0  0  0  0  0  0  0  0
    5.4477    0.7494   -1.6338 C   0  0  0  0  0  0  0  0  0  0  0  0
    4.0715    0.9327   -1.8186 C   0  0  0  0  0  0  0  0  0  0  0  0
    3.5657    2.2019   -1.8044 C   0  0  0  0  0  0  0  0  0  0  0  0
    4.4074    3.2795   -1.6860 C   0  0  0  0  0  0  0  0  0  0  0  0
    6.5353    3.9781   -1.2843 N   0  0  0  0  0  0  0  0  0  0  0  0
    6.1259    5.2633   -1.1943 C   0  0  0  0  0  0  0  0  0  0  0  0
    4.8754    5.5249   -1.4692 C   0  0  0  0  0  0  0  0  0  0  0  0
    6.9369    6.1739   -0.7840 N   0  0  0  0  0  0  0  0  0  0  0  0
    3.9677    4.6032   -1.7157 C   0  0  0  0  0  0  0  0  0  0  0  0
    2.0676    2.4475   -1.8627 C   0  0  0  0  0  0  0  0  0  0  0  0
    1.2081    1.1848   -1.9535 C   0  0  0  0  0  0  0  0  0  0  0  0
   -3.1565    0.1520    1.6062 N   0  0  0  0  0  0  0  0  0  0  0  0
   -5.1283   -0.6796    3.3717 O   0  0  0  0  0  0  0  0  0  0  0  0
   -0.3886   -4.4363    4.0360 H   0  0  0  0  0  0  0  0  0  0  0  0
   -2.6729   -5.1001    6.6544 H   0  0  0  0  0  0  0  0  0  0  0  0
   -5.5519   -2.2637    5.2271 H   0  0  0  0  0  0  0  0  0  0  0  0
   -0.7290   -5.2518    5.3843 H   0  0  0  0  0  0  0  0  0  0  0  0
   -2.2185    0.4147    0.7813 N   0  0  0  0  0  0  0  0  0  0  0  0
   -0.1396   -0.9460   -1.1074 H   0  0  0  0  0  0  0  0  0  0  0  0
   -1.2425    0.7389   -2.7515 H   0  0  0  0  0  0  0  0  0  0  0  0
   -2.4132    1.0328   -1.3896 H   0  0  0  0  0  0  0  0  0  0  0  0
   -4.3890   -0.4410   -1.3239 H   0  0  0  0  0  0  0  0  0  0  0  0
   -1.1649   -1.3071   -4.0694 H   0  0  0  0  0  0  0  0  0  0  0  0
   -5.7603   -2.1980   -2.4251 H   0  0  0  0  0  0  0  0  0  0  0  0
   -2.6346   -2.9246   -5.2407 H   0  0  0  0  0  0  0  0  0  0  0  0
   -4.9407   -3.4024   -4.4551 H   0  0  0  0  0  0  0  0  0  0  0  0
    7.3259    1.5840   -1.4599 H   0  0  0  0  0  0  0  0  0  0  0  0
    5.8040   -0.2960   -1.5469 H   0  0  0  0  0  0  0  0  0  0  0  0
    3.4499    0.0210   -1.9644 H   0  0  0  0  0  0  0  0  0  0  0  0
    4.4750    6.6166   -1.4227 H   0  0  0  0  0  0  0  0  0  0  0  0
    6.6086    7.0752   -0.5915 H   0  0  0  0  0  0  0  0  0  0  0  0
    7.8381    5.8334   -0.6022 H   0  0  0  0  0  0  0  0  0  0  0  0
    2.9254    4.9158   -1.8335 H   0  0  0  0  0  0  0  0  0  0  0  0
    1.8591    3.0810   -2.8065 H   0  0  0  0  0  0  0  0  0  0  0  0
    1.7674    3.0942   -0.9920 H   0  0  0  0  0  0  0  0  0  0  0  0
    1.2071    0.5092   -2.9908 O   0  0  0  0  0  0  0  0  0  0  0  0
  1  2  2  0
  1  3  1  0
  1 15  1  0
  3  4  2  0
  3  8  1  0
  4  5  1  0
  4 39  1  0
  5  6  1  0
  5 40  2  0
  6  7  2  0
  6 13  1  0
  7  8  1  0
  7  9  1  0
  9 10  2  0
  9 14  1  0
 10 11  1  0
 10 42  1  0
 11 12  1  0
 11 13  2  0
 13 43  1  0
 14 41  1  0
 14 44  1  0
 15 16  1  0
 15 45  1  0
 16 17  1  0
 16 19  1  0
 16 46  1  0
 17 18  1  0
 17 38  1  0
 19 20  1  0
 19 47  1  0
 19 48  1  0
 20 21  2  0
 20 22  1  0
 21 23  1  0
 21 49  1  0
 22 24  2  0
 22 50  1  0
 23 25  2  0
 23 51  1  0
 24 25  1  0
 24 52  1  0
 25 53  1  0
 26 27  2  0
 26 31  1  0
 26 32  1  0
 27 28  1  0
 27 54  1  0
 28 29  2  0
 28 55  1  0
 29 30  1  0
 29 56  1  0
 30 31  2  0
 30 37  1  0
 31 36  1  0
 32 33  2  0
 33 34  1  0
 33 35  1  0
 34 36  2  0
 34 57  1  0
 35 58  1  0
 35 59  1  0
 36 60  1  0
 37 38  1  0
 37 61  1  0
 37 62  1  0
 38 63  2  0
 39 45  2  0
M  END
>  <template_idx>  (10) 
4cra_ligand

>  <smiles>  (10) 
Nc1ccc2c(CC(=O)NC(Cc3ccccc3)n3nnc4c(=O)c5cccc(N)c5oc4c3=O)cccc2n1

>  <qed>  (10) 
0.21489859218586715

$$$$
sample9
     RDKit          3D

 63 67  0  0  0  0  0  0  0  0999 V2000
   -1.1271   -1.5867    0.7877 C   0  0  0  0  0  0  0  0  0  0  0  0
   -0.2908   -2.3664    0.5300 O   0  0  0  0  0  0  0  0  0  0  0  0
   -2.1814   -1.9956    1.8078 C   0  0  0  0  0  0  0  0  0  0  0  0
   -3.4031   -1.3984    1.9699 C   0  0  0  0  0  0  0  0  0  0  0  0
   -4.3069   -1.8365    2.9435 C   0  0  0  0  0  0  0  0  0  0  0  0
   -3.9866   -2.8282    3.8117 C   0  0  0  0  0  0  0  0  0  0  0  0
   -2.7447   -3.4493    3.6558 C   0  0  0  0  0  0  0  0  0  0  0  0
   -1.9084   -3.0791    2.6127 C   0  0  0  0  0  0  0  0  0  0  0  0
   -2.3941   -4.4422    4.6142 C   0  0  0  0  0  0  0  0  0  0  0  0
   -3.2027   -4.6921    5.6495 C   0  0  0  0  0  0  0  0  0  0  0  0
   -4.4534   -4.0550    5.7891 C   0  0  0  0  0  0  0  0  0  0  0  0
   -5.1247   -4.3618    6.5689 H   0  0  0  0  0  0  0  0  0  0  0  0
   -4.8396   -3.1580    4.8689 C   0  0  0  0  0  0  0  0  0  0  0  0
   -1.1934   -4.9962    4.4694 O   0  0  0  0  0  0  0  0  0  0  0  0
   -1.1203   -0.2685    0.2814 C   0  0  0  0  0  0  0  0  0  0  0  0
   -0.4461   -0.0809   -1.0100 C   0  0  0  0  0  0  0  0  0  0  0  0
    0.4437    1.1031   -1.0407 C   0  0  0  0  0  0  0  0  0  0  0  0
    0.1592    1.8016   -0.2855 H   0  0  0  0  0  0  0  0  0  0  0  0
   -1.4684    0.0791   -2.2159 C   0  0  0  0  0  0  0  0  0  0  0  0
   -2.4988   -0.9808   -2.5567 C   0  0  0  0  0  0  0  0  0  0  0  0
   -3.8212   -0.8871   -2.0889 C   0  0  0  0  0  0  0  0  0  0  0  0
   -2.2063   -2.0478   -3.4718 C   0  0  0  0  0  0  0  0  0  0  0  0
   -4.8299   -1.8273   -2.4556 C   0  0  0  0  0  0  0  0  0  0  0  0
   -3.2017   -2.9989   -3.8514 C   0  0  0  0  0  0  0  0  0  0  0  0
   -4.5455   -2.9101   -3.3593 C   0  0  0  0  0  0  0  0  0  0  0  0
    5.8681    3.3409   -1.2454 C   0  0  0  0  0  0  0  0  0  0  0  0
    6.3969    2.0994   -1.1246 N   0  0  0  0  0  0  0  0  0  0  0  0
    5.6436    1.1167   -1.2717 C   0  0  0  0  0  0  0  0  0  0  0  0
    4.2690    1.2210   -1.4909 C   0  0  0  0  0  0  0  0  0  0  0  0
    3.6862    2.4404   -1.6065 N   0  0  0  0  0  0  0  0  0  0  0  0
    4.5331    3.5705   -1.4873 C   0  0  0  0  0  0  0  0  0  0  0  0
    6.6909    4.3582   -0.9510 C   0  0  0  0  0  0  0  0  0  0  0  0
    6.1813    5.6061   -0.8741 C   0  0  0  0  0  0  0  0  0  0  0  0
    4.9103    5.8575   -1.3241 C   0  0  0  0  0  0  0  0  0  0  0  0
    6.9137    6.6136   -0.3534 N   0  0  0  0  0  0  0  0  0  0  0  0
    4.0501    4.8993   -1.6332 C   0  0  0  0  0  0  0  0  0  0  0  0
    2.2325    2.6414   -1.8217 C   0  0  0  0  0  0  0  0  0  0  0  0
    1.5032    1.3312   -1.8839 C   0  0  0  0  0  0  0  0  0  0  0  0
   -3.6696   -0.5220    1.3226 H   0  0  0  0  0  0  0  0  0  0  0  0
   -5.2855   -1.3361    3.0555 H   0  0  0  0  0  0  0  0  0  0  0  0
   -1.0064   -3.6429    2.4118 H   0  0  0  0  0  0  0  0  0  0  0  0
   -2.8931   -5.4153    6.4173 H   0  0  0  0  0  0  0  0  0  0  0  0
   -5.8140   -2.7088    4.9490 H   0  0  0  0  0  0  0  0  0  0  0  0
   -0.9326   -5.5223    5.0583 H   0  0  0  0  0  0  0  0  0  0  0  0
   -1.6493    0.6451    0.8666 O   0  0  0  0  0  0  0  0  0  0  0  0
    0.1589   -1.0803   -1.1863 H   0  0  0  0  0  0  0  0  0  0  0  0
   -2.0105    0.9611   -1.9295 H   0  0  0  0  0  0  0  0  0  0  0  0
   -0.8963    0.2143   -3.1239 H   0  0  0  0  0  0  0  0  0  0  0  0
   -4.1007   -0.0739   -1.4549 H   0  0  0  0  0  0  0  0  0  0  0  0
   -1.1918   -2.1223   -3.8448 H   0  0  0  0  0  0  0  0  0  0  0  0
   -5.8180   -1.7365   -2.0664 H   0  0  0  0  0  0  0  0  0  0  0  0
   -2.9635   -3.8012   -4.5275 H   0  0  0  0  0  0  0  0  0  0  0  0
   -5.2736   -3.5918   -3.6412 H   0  0  0  0  0  0  0  0  0  0  0  0
    7.7112    4.1207   -0.6177 H   0  0  0  0  0  0  0  0  0  0  0  0
    6.0998    0.0991   -1.1651 H   0  0  0  0  0  0  0  0  0  0  0  0
    3.6387    0.3056   -1.5604 H   0  0  0  0  0  0  0  0  0  0  0  0
    4.5940    6.9301   -1.3764 H   0  0  0  0  0  0  0  0  0  0  0  0
    6.3262    7.6494   -0.2515 O   0  0  0  0  0  0  0  0  0  0  0  0
    8.0268    6.3589    0.1078 O   0  0  0  0  0  0  0  0  0  0  0  0
    3.0362    5.2162   -1.9305 H   0  0  0  0  0  0  0  0  0  0  0  0
    2.1267    3.1932   -2.7496 H   0  0  0  0  0  0  0  0  0  0  0  0
    1.8542    3.3002   -1.0089 H   0  0  0  0  0  0  0  0  0  0  0  0
    1.7450    0.7264   -2.7110 H   0  0  0  0  0  0  0  0  0  0  0  0
  1  2  2  0
  1  3  1  0
  1 15  1  0
  3  4  2  0
  3  8  1  0
  4  5  1  0
  4 39  1  0
  5  6  2  0
  5 40  1  0
  6  7  1  0
  6 13  1  0
  7  8  2  0
  7  9  1  0
  8 41  1  0
  9 10  2  0
  9 14  1  0
 10 11  1  0
 10 42  1  0
 11 12  1  0
 11 13  2  0
 13 43  1  0
 14 44  1  0
 15 16  1  0
 15 45  2  0
 16 17  1  0
 16 19  1  0
 16 46  1  0
 17 18  1  0
 17 38  2  3
 19 20  1  0
 19 47  1  0
 19 48  1  0
 20 21  2  0
 20 22  1  0
 21 23  1  0
 21 49  1  0
 22 24  2  0
 22 50  1  0
 23 25  2  0
 23 51  1  0
 24 25  1  0
 24 52  1  0
 25 53  1  0
 26 27  2  0
 26 31  1  0
 26 32  1  0
 27 28  1  0
 28 29  2  0
 28 55  1  0
 29 30  1  0
 29 56  1  0
 30 31  2  0
 30 37  1  0
 31 36  1  0
 32 33  2  0
 32 54  1  0
 33 34  1  0
 33 35  1  0
 34 36  2  0
 34 57  1  0
 35 58  1  0
 35 59  2  0
 36 60  1  0
 37 38  1  0
 37 61  1  0
 37 62  1  0
 38 63  1  0
M  CHG  3  30   1  35   1  58  -1
M  END
>  <template_idx>  (11) 
4cra_ligand

>  <smiles>  (11) 
O=C(C(=O)C(C=CC[n+]1ccnc2cc([N+](=O)[O-])ccc21)Cc1ccccc1)c1ccc2cccc(O)c2c1

>  <qed>  (11) 
0.07203083108624252

$$$$
sample10
     RDKit          3D

 63 67  0  0  0  0  0  0  0  0999 V2000
   -1.3028   -1.1378    1.0195 N   0  0  0  0  0  0  0  0  0  0  0  0
   -0.4488   -1.5518    1.1704 H   0  0  0  0  0  0  0  0  0  0  0  0
   -2.2845   -1.6808    1.9674 C   0  0  0  0  0  0  0  0  0  0  0  0
   -3.5263   -1.1805    2.1729 C   0  0  0  0  0  0  0  0  0  0  0  0
   -4.3411   -1.6861    3.1571 C   0  0  0  0  0  0  0  0  0  0  0  0
   -3.9373   -2.6810    3.9742 C   0  0  0  0  0  0  0  0  0  0  0  0
   -2.6911   -3.2207    3.7495 C   0  0  0  0  0  0  0  0  0  0  0  0
   -1.8887   -2.7484    2.7042 C   0  0  0  0  0  0  0  0  0  0  0  0
   -2.2867   -4.2711    4.6268 C   0  0  0  0  0  0  0  0  0  0  0  0
   -3.0733   -4.6082    5.6551 C   0  0  0  0  0  0  0  0  0  0  0  0
   -4.3325   -4.0335    5.8756 C   0  0  0  0  0  0  0  0  0  0  0  0
   -4.9210   -4.3238    6.7622 H   0  0  0  0  0  0  0  0  0  0  0  0
   -4.7641   -3.1194    4.9974 C   0  0  0  0  0  0  0  0  0  0  0  0
   -1.0864   -4.8048    4.4089 O   0  0  0  0  0  0  0  0  0  0  0  0
   -1.4927   -0.3215    0.0462 C   0  0  0  0  0  0  0  0  0  0  0  0
   -0.3550   -0.1846   -0.9140 C   0  0  0  0  0  0  0  0  0  0  0  0
    0.7766    0.8281   -0.8107 C   0  0  0  0  0  0  0  0  0  0  0  0
    1.3167    0.8441    0.2868 O   0  0  0  0  0  0  0  0  0  0  0  0
   -1.0304   -0.0147   -2.3009 C   0  0  0  0  0  0  0  0  0  0  0  0
   -2.2278   -0.8461   -2.5578 N   0  0  0  0  0  0  0  0  0  0  0  0
   -3.4799   -0.2756   -2.7420 C   0  0  0  0  0  0  0  0  0  0  0  0
   -2.1244   -2.1852   -2.8220 C   0  0  0  0  0  0  0  0  0  0  0  0
   -4.6023   -1.0258   -3.1857 C   0  0  0  0  0  0  0  0  0  0  0  0
   -3.2391   -2.9866   -3.2140 C   0  0  0  0  0  0  0  0  0  0  0  0
   -4.5103   -2.4167   -3.4356 C   0  0  0  0  0  0  0  0  0  0  0  0
    5.7488    3.0963   -1.4079 C   0  0  0  0  0  0  0  0  0  0  0  0
    6.2171    1.7738   -1.4040 C   0  0  0  0  0  0  0  0  0  0  0  0
    5.2996    0.8189   -1.4523 C   0  0  0  0  0  0  0  0  0  0  0  0
    3.9075    1.0688   -1.5505 C   0  0  0  0  0  0  0  0  0  0  0  0
    3.4919    2.3703   -1.6122 C   0  0  0  0  0  0  0  0  0  0  0  0
    4.4461    3.3994   -1.5497 C   0  0  0  0  0  0  0  0  0  0  0  0
    6.6254    3.9888   -1.2463 N   0  0  0  0  0  0  0  0  0  0  0  0
    6.2423    5.3040   -1.1021 C   0  0  0  0  0  0  0  0  0  0  0  0
    4.9882    5.6367   -1.3246 C   0  0  0  0  0  0  0  0  0  0  0  0
    7.1255    6.2138   -0.6056 N   0  0  0  0  0  0  0  0  0  0  0  0
    4.0534    4.7273   -1.5534 C   0  0  0  0  0  0  0  0  0  0  0  0
    2.0070    2.7335   -1.6894 C   0  0  0  0  0  0  0  0  0  0  0  0
    1.0951    1.5967   -1.7886 N   0  0  0  0  0  0  0  0  0  0  0  0
   -3.8769   -0.3306    1.5590 H   0  0  0  0  0  0  0  0  0  0  0  0
   -5.3366   -1.2595    3.2587 H   0  0  0  0  0  0  0  0  0  0  0  0
   -0.9828   -3.2595    2.4590 H   0  0  0  0  0  0  0  0  0  0  0  0
   -2.7185   -5.3497    6.3861 H   0  0  0  0  0  0  0  0  0  0  0  0
   -5.6971   -2.6364    5.1430 H   0  0  0  0  0  0  0  0  0  0  0  0
   -0.8695   -5.4324    4.9790 H   0  0  0  0  0  0  0  0  0  0  0  0
   -2.5851    0.3133   -0.1125 O   0  0  0  0  0  0  0  0  0  0  0  0
    0.1778   -1.1119   -0.7446 H   0  0  0  0  0  0  0  0  0  0  0  0
   -0.2780   -0.3598   -3.0297 H   0  0  0  0  0  0  0  0  0  0  0  0
   -1.3902    0.9819   -2.4337 H   0  0  0  0  0  0  0  0  0  0  0  0
   -3.6210    0.7618   -2.4617 H   0  0  0  0  0  0  0  0  0  0  0  0
   -1.1390   -2.6181   -2.7408 H   0  0  0  0  0  0  0  0  0  0  0  0
   -5.5515   -0.5327   -3.3528 H   0  0  0  0  0  0  0  0  0  0  0  0
   -3.1185   -4.0505   -3.3581 H   0  0  0  0  0  0  0  0  0  0  0  0
   -5.3308   -2.9831   -3.8074 H   0  0  0  0  0  0  0  0  0  0  0  0
    7.2386    1.5328   -1.3763 H   0  0  0  0  0  0  0  0  0  0  0  0
    5.5841   -0.2350   -1.4316 H   0  0  0  0  0  0  0  0  0  0  0  0
    3.2046    0.1850   -1.5750 H   0  0  0  0  0  0  0  0  0  0  0  0
    4.6961    6.7380   -1.3166 H   0  0  0  0  0  0  0  0  0  0  0  0
    6.8314    7.3654   -0.4027 O   0  0  0  0  0  0  0  0  0  0  0  0
    8.1650    5.7656   -0.2349 O   0  0  0  0  0  0  0  0  0  0  0  0
    3.0594    5.1331   -1.6536 H   0  0  0  0  0  0  0  0  0  0  0  0
    1.8615    3.3648   -2.5769 H   0  0  0  0  0  0  0  0  0  0  0  0
    1.7205    3.3035   -0.8416 H   0  0  0  0  0  0  0  0  0  0  0  0
    0.5617    1.6181   -2.6394 H   0  0  0  0  0  0  0  0  0  0  0  0
  1  2  1  0
  1  3  1  0
  1 15  1  0
  3  4  2  0
  3  8  1  0
  4  5  1  0
  4 39  1  0
  5  6  2  0
  5 40  1  0
  6  7  1  0
  6 13  1  0
  7  8  2  0
  7  9  1  0
  8 41  1  0
  9 10  2  0
  9 14  1  0
 10 11  1  0
 10 42  1  0
 11 12  1  0
 11 13  2  0
 13 43  1  0
 14 44  1  0
 15 16  1  0
 15 45  2  0
 16 17  1  0
 16 19  1  0
 16 46  1  0
 17 18  2  0
 17 38  1  0
 19 20  1  0
 19 47  1  0
 19 48  1  0
 20 21  2  0
 20 22  1  0
 21 23  1  0
 21 49  1  0
 22 24  2  0
 22 50  1  0
 23 25  2  0
 23 51  1  0
 24 25  1  0
 24 52  1  0
 25 53  1  0
 26 27  2  0
 26 31  1  0
 26 32  1  0
 27 28  1  0
 27 54  1  0
 28 29  2  0
 28 55  1  0
 29 30  1  0
 29 56  1  0
 30 31  2  0
 30 37  1  0
 31 36  1  0
 32 33  2  0
 33 34  1  0
 33 35  1  0
 34 36  2  0
 34 57  1  0
 35 58  2  0
 35 59  1  0
 36 60  1  0
 37 38  1  0
 37 61  1  0
 37 62  1  0
 38 63  1  0
M  CHG  3  20   1  35   1  59  -1
M  END
>  <template_idx>  (12) 
4cra_ligand

>  <smiles>  (12) 
O=C(NCc1cccc2nc([N+](=O)[O-])ccc12)C(C[n+]1ccccc1)C(=O)Nc1ccc2cccc(O)c2c1

>  <qed>  (12) 
0.12244596232200478

$$$$
sample11
     RDKit          3D

 63 67  0  0  0  0  0  0  0  0999 V2000
   -1.1163   -1.4171    0.8640 N   0  0  0  0  0  0  0  0  0  0  0  0
   -0.3997   -2.0596    0.7997 H   0  0  0  0  0  0  0  0  0  0  0  0
   -2.0996   -1.8317    1.8668 C   0  0  0  0  0  0  0  0  0  0  0  0
   -3.3646   -1.3839    1.8500 C   0  0  0  0  0  0  0  0  0  0  0  0
   -4.2906   -1.8112    2.7883 C   0  0  0  0  0  0  0  0  0  0  0  0
   -3.9389   -2.6237    3.8251 C   0  0  0  0  0  0  0  0  0  0  0  0
   -2.6183   -3.0547    3.8661 C   0  0  0  0  0  0  0  0  0  0  0  0
   -1.7280   -2.7122    2.8337 C   0  0  0  0  0  0  0  0  0  0  0  0
   -2.2555   -3.8827    4.9700 C   0  0  0  0  0  0  0  0  0  0  0  0
   -3.1483   -4.1235    5.9263 C   0  0  0  0  0  0  0  0  0  0  0  0
   -4.4751   -3.6859    5.8595 C   0  0  0  0  0  0  0  0  0  0  0  0
   -5.1829   -3.9352    6.6687 H   0  0  0  0  0  0  0  0  0  0  0  0
   -4.8623   -2.9755    4.8029 C   0  0  0  0  0  0  0  0  0  0  0  0
   -0.9965   -4.3430    5.0237 O   0  0  0  0  0  0  0  0  0  0  0  0
   -1.0729   -0.2674    0.2656 C   0  0  0  0  0  0  0  0  0  0  0  0
   -0.3088   -0.1810   -0.9885 C   0  0  0  0  0  0  0  0  0  0  0  0
    0.5121    0.9985   -1.0029 N   0  0  0  0  0  0  0  0  0  0  0  0
    0.4758    1.4870   -0.1499 H   0  0  0  0  0  0  0  0  0  0  0  0
   -1.2047   -0.1506   -2.3017 C   0  0  0  0  0  0  0  0  0  0  0  0
   -2.3344   -1.1051   -2.4999 C   0  0  0  0  0  0  0  0  0  0  0  0
   -3.6695   -0.7542   -2.1874 C   0  0  0  0  0  0  0  0  0  0  0  0
   -2.1237   -2.3602   -3.1526 C   0  0  0  0  0  0  0  0  0  0  0  0
   -4.7460   -1.6191   -2.5074 C   0  0  0  0  0  0  0  0  0  0  0  0
   -3.2029   -3.2362   -3.4552 C   0  0  0  0  0  0  0  0  0  0  0  0
   -4.5455   -2.8725   -3.1400 C   0  0  0  0  0  0  0  0  0  0  0  0
    5.7604    3.1430   -1.4495 C   0  0  0  0  0  0  0  0  0  0  0  0
    6.1714    1.8062   -1.3804 C   0  0  0  0  0  0  0  0  0  0  0  0
    5.2246    0.8507   -1.4354 C   0  0  0  0  0  0  0  0  0  0  0  0
    3.8551    1.1613   -1.5890 C   0  0  0  0  0  0  0  0  0  0  0  0
    3.4776    2.4767   -1.6691 C   0  0  0  0  0  0  0  0  0  0  0  0
    4.4353    3.4771   -1.6082 C   0  0  0  0  0  0  0  0  0  0  0  0
    6.6527    4.0061   -1.2625 N   0  0  0  0  0  0  0  0  0  0  0  0
    6.3079    5.3317   -1.1594 C   0  0  0  0  0  0  0  0  0  0  0  0
    5.0706    5.6831   -1.4566 C   0  0  0  0  0  0  0  0  0  0  0  0
    7.2275    6.1999   -0.6715 N   0  0  0  0  0  0  0  0  0  0  0  0
    4.0955    4.8163   -1.6819 C   0  0  0  0  0  0  0  0  0  0  0  0
    1.9738    2.7987   -1.7440 C   0  0  0  0  0  0  0  0  0  0  0  0
    1.0776    1.6175   -2.0884 C   0  0  0  0  0  0  0  0  0  0  0  0
   -3.6642   -0.6466    1.0865 H   0  0  0  0  0  0  0  0  0  0  0  0
   -5.2778   -1.3971    2.7381 H   0  0  0  0  0  0  0  0  0  0  0  0
   -0.7410   -3.1333    2.8172 H   0  0  0  0  0  0  0  0  0  0  0  0
   -2.8271   -4.6955    6.8293 H   0  0  0  0  0  0  0  0  0  0  0  0
   -5.8608   -2.6154    4.7292 H   0  0  0  0  0  0  0  0  0  0  0  0
   -0.8213   -4.8476    5.7232 H   0  0  0  0  0  0  0  0  0  0  0  0
   -1.6367    0.7371    0.7253 O   0  0  0  0  0  0  0  0  0  0  0  0
    0.3489   -1.0949   -0.9912 H   0  0  0  0  0  0  0  0  0  0  0  0
   -0.5501   -0.3180   -3.1265 H   0  0  0  0  0  0  0  0  0  0  0  0
   -1.6469    0.8353   -2.2925 H   0  0  0  0  0  0  0  0  0  0  0  0
   -3.8606    0.2045   -1.7182 H   0  0  0  0  0  0  0  0  0  0  0  0
   -1.1160   -2.6302   -3.3979 H   0  0  0  0  0  0  0  0  0  0  0  0
   -5.7395   -1.3243   -2.2904 H   0  0  0  0  0  0  0  0  0  0  0  0
   -3.0303   -4.1606   -3.9404 H   0  0  0  0  0  0  0  0  0  0  0  0
   -5.3355   -3.4905   -3.3795 H   0  0  0  0  0  0  0  0  0  0  0  0
    7.1931    1.5427   -1.2370 H   0  0  0  0  0  0  0  0  0  0  0  0
    5.4743   -0.1967   -1.3436 H   0  0  0  0  0  0  0  0  0  0  0  0
    3.1023    0.3291   -1.6693 H   0  0  0  0  0  0  0  0  0  0  0  0
    4.8163    6.7671   -1.4655 H   0  0  0  0  0  0  0  0  0  0  0  0
    6.8393    7.3420   -0.6039 O   0  0  0  0  0  0  0  0  0  0  0  0
    8.3330    5.8691   -0.3153 O   0  0  0  0  0  0  0  0  0  0  0  0
    3.0729    5.1685   -1.8499 H   0  0  0  0  0  0  0  0  0  0  0  0
    1.8294    3.5940   -2.5304 H   0  0  0  0  0  0  0  0  0  0  0  0
    1.6559    3.2596   -0.8053 H   0  0  0  0  0  0  0  0  0  0  0  0
    0.8095    1.4339   -3.3208 O   0  0  0  0  0  0  0  0  0  0  0  0
  1  2  1  0
  1  3  1  0
  1 15  1  0
  3  4  2  0
  3  8  1  0
  4  5  1  0
  4 39  1  0
  5  6  2  0
  5 40  1  0
  6  7  1  0
  6 13  1  0
  7  8  2  0
  7  9  1  0
  8 41  1  0
  9 10  2  0
  9 14  1  0
 10 11  1  0
 10 42  1  0
 11 12  1  0
 11 13  2  0
 13 43  1  0
 14 44  1  0
 15 16  1  0
 15 45  2  0
 16 17  1  0
 16 19  1  0
 16 46  1  0
 17 18  1  0
 17 38  1  0
 19 20  1  0
 19 47  1  0
 19 48  1  0
 20 21  2  0
 20 22  1  0
 21 23  1  0
 21 49  1  0
 22 24  2  0
 22 50  1  0
 23 25  2  0
 23 51  1  0
 24 25  1  0
 24 52  1  0
 25 53  1  0
 26 27  2  0
 26 31  1  0
 26 32  1  0
 27 28  1  0
 27 54  1  0
 28 29  2  0
 28 55  1  0
 29 30  1  0
 29 56  1  0
 30 31  2  0
 30 37  1  0
 31 36  1  0
 32 33  2  0
 33 34  1  0
 33 35  1  0
 34 36  2  0
 34 57  1  0
 35 58  1  0
 35 59  2  0
 36 60  1  0
 37 38  1  0
 37 61  1  0
 37 62  1  0
 38 63  2  0
M  CHG  2  35   1  58  -1
M  END
>  <template_idx>  (13) 
4cra_ligand

>  <smiles>  (13) 
O=C(Cc1cccc2nc([N+](=O)[O-])ccc12)NC(Cc1ccccc1)C(=O)Nc1ccc2cccc(O)c2c1

>  <qed>  (13) 
0.19657735463260348

$$$$
sample12
     RDKit          3D

 63 67  0  0  0  0  0  0  0  0999 V2000
   -1.3572   -1.3674    1.0776 N   0  0  0  0  0  0  0  0  0  0  0  0
   -0.5736   -1.9612    1.0889 H   0  0  0  0  0  0  0  0  0  0  0  0
   -2.3546   -1.8468    2.0261 C   0  0  0  0  0  0  0  0  0  0  0  0
   -3.6133   -1.4451    2.0187 C   0  0  0  0  0  0  0  0  0  0  0  0
   -4.4719   -1.8703    2.9038 N   0  0  0  0  0  0  0  0  0  0  0  0
   -4.1589   -2.7266    3.9125 C   0  0  0  0  0  0  0  0  0  0  0  0
   -2.8906   -3.1631    3.9184 C   0  0  0  0  0  0  0  0  0  0  0  0
   -1.9319   -2.8225    2.9455 C   0  0  0  0  0  0  0  0  0  0  0  0
   -2.4743   -4.0451    4.9924 C   0  0  0  0  0  0  0  0  0  0  0  0
   -3.3467   -4.2990    5.9638 C   0  0  0  0  0  0  0  0  0  0  0  0
   -4.6511   -3.8473    5.9304 C   0  0  0  0  0  0  0  0  0  0  0  0
   -5.2914   -4.0405    6.8127 H   0  0  0  0  0  0  0  0  0  0  0  0
   -5.0544   -3.0857    4.8747 C   0  0  0  0  0  0  0  0  0  0  0  0
   -1.2480   -4.6531    5.1589 C   0  0  0  0  0  0  0  0  0  0  0  0
   -1.3638   -0.2309    0.4290 C   0  0  0  0  0  0  0  0  0  0  0  0
   -0.4388   -0.1037   -0.7161 C   0  0  0  0  0  0  0  0  0  0  0  0
    0.4148    1.0809   -0.6874 C   0  0  0  0  0  0  0  0  0  0  0  0
    0.1644    1.7943    0.1111 H   0  0  0  0  0  0  0  0  0  0  0  0
   -1.2474   -0.0464   -2.1317 C   0  0  0  0  0  0  0  0  0  0  0  0
   -2.3622   -0.9690   -2.6061 C   0  0  0  0  0  0  0  0  0  0  0  0
   -3.7279   -0.7291   -2.3506 C   0  0  0  0  0  0  0  0  0  0  0  0
   -2.1324   -2.1080   -3.4365 C   0  0  0  0  0  0  0  0  0  0  0  0
   -4.7752   -1.5154   -2.8406 C   0  0  0  0  0  0  0  0  0  0  0  0
   -3.1478   -2.9172   -3.9737 C   0  0  0  0  0  0  0  0  0  0  0  0
   -4.4737   -2.6050   -3.6708 C   0  0  0  0  0  0  0  0  0  0  0  0
    5.9624    3.2580   -1.6134 C   0  0  0  0  0  0  0  0  0  0  0  0
    6.6043    2.0377   -1.6230 C   0  0  0  0  0  0  0  0  0  0  0  0
    5.8265    0.9894   -1.5737 C   0  0  0  0  0  0  0  0  0  0  0  0
    4.4064    1.1303   -1.5357 C   0  0  0  0  0  0  0  0  0  0  0  0
    3.7935    2.3505   -1.5693 C   0  0  0  0  0  0  0  0  0  0  0  0
    4.6411    3.4415   -1.6208 C   0  0  0  0  0  0  0  0  0  0  0  0
    6.7344    4.2069   -1.4927 O   0  0  0  0  0  0  0  0  0  0  0  0
    6.3152    5.4790   -1.3871 C   0  0  0  0  0  0  0  0  0  0  0  0
    5.1030    5.7751   -1.5625 C   0  0  0  0  0  0  0  0  0  0  0  0
    7.1298    6.3928   -0.9023 N   0  0  0  0  0  0  0  0  0  0  0  0
    4.0761    4.7890   -1.6858 C   0  0  0  0  0  0  0  0  0  0  0  0
    2.2674    2.5519   -1.4914 C   0  0  0  0  0  0  0  0  0  0  0  0
    1.4517    1.2892   -1.5553 C   0  0  0  0  0  0  0  0  0  0  0  0
   -3.9744   -0.7064    1.2606 H   0  0  0  0  0  0  0  0  0  0  0  0
   -5.4894   -1.4951    2.8957 H   0  0  0  0  0  0  0  0  0  0  0  0
   -0.8108   -3.3213    2.8903 O   0  0  0  0  0  0  0  0  0  0  0  0
   -3.0240   -4.9508    6.8604 H   0  0  0  0  0  0  0  0  0  0  0  0
   -6.0595   -2.7280    4.8798 H   0  0  0  0  0  0  0  0  0  0  0  0
   -0.7161   -5.2722    5.6510 O   0  0  0  0  0  0  0  0  0  0  0  0
   -2.1140    0.6742    0.7454 O   0  0  0  0  0  0  0  0  0  0  0  0
    0.1975   -1.0312   -0.7043 H   0  0  0  0  0  0  0  0  0  0  0  0
   -0.5009   -0.2141   -2.8854 H   0  0  0  0  0  0  0  0  0  0  0  0
   -1.7287    0.9137   -2.0855 H   0  0  0  0  0  0  0  0  0  0  0  0
   -4.0781    0.3491   -1.6101 F   0  0  0  0  0  0  0  0  0  0  0  0
   -0.9050   -2.4354   -3.7571 F   0  0  0  0  0  0  0  0  0  0  0  0
   -5.8309   -1.2774   -2.6767 H   0  0  0  0  0  0  0  0  0  0  0  0
   -2.9446   -3.7712   -4.6461 H   0  0  0  0  0  0  0  0  0  0  0  0
   -5.4402   -3.3034   -4.1995 F   0  0  0  0  0  0  0  0  0  0  0  0
    7.6868    1.9260   -1.6605 H   0  0  0  0  0  0  0  0  0  0  0  0
    6.2175   -0.0507   -1.5742 H   0  0  0  0  0  0  0  0  0  0  0  0
    3.7079   -0.0419   -1.4704 F   0  0  0  0  0  0  0  0  0  0  0  0
    4.7130    6.8704   -1.5671 H   0  0  0  0  0  0  0  0  0  0  0  0
    6.7619    7.3332   -0.7816 H   0  0  0  0  0  0  0  0  0  0  0  0
    7.9718    6.1455   -0.5924 H   0  0  0  0  0  0  0  0  0  0  0  0
    2.8663    5.1718   -1.8152 O   0  0  0  0  0  0  0  0  0  0  0  0
    1.9906    3.2273   -2.3168 H   0  0  0  0  0  0  0  0  0  0  0  0
    2.0435    3.1746   -0.5911 H   0  0  0  0  0  0  0  0  0  0  0  0
    1.6563    0.6448   -2.3870 H   0  0  0  0  0  0  0  0  0  0  0  0
  1  2  1  0
  1  3  1  0
  1 15  1  0
  3  4  2  0
  3  8  1  0
  4  5  1  0
  4 39  1  0
  5  6  1  0
  5 40  1  0
  6  7  2  0
  6 13  1  0
  7  8  1  0
  7  9  1  0
  8 41  2  0
  9 10  2  0
  9 14  1  0
 10 11  1  0
 10 42  1  0
 11 12  1  0
 11 13  2  0
 13 43  1  0
 14 44  2  0
 15 16  1  0
 15 45  2  0
 16 17  1  0
 16 19  1  0
 16 46  1  0
 17 18  1  0
 17 38  2  3
 19 20  1  0
 19 47  1  0
 19 48  1  0
 20 21  2  0
 20 22  1  0
 21 23  1  0
 21 49  1  0
 22 24  2  0
 22 50  1  0
 23 25  2  0
 23 51  1  0
 24 25  1  0
 24 52  1  0
 25 53  1  0
 26 27  2  0
 26 31  1  0
 26 32  1  0
 27 28  1  0
 27 54  1  0
 28 29  2  0
 28 55  1  0
 29 30  1  0
 29 56  1  0
 30 31  2  0
 30 37  1  0
 31 36  1  0
 32 33  1  0
 33 34  2  0
 33 35  1  0
 34 36  1  0
 34 57  1  0
 35 58  1  0
 35 59  1  0
 36 60  2  0
 37 38  1  0
 37 61  1  0
 37 62  1  0
 38 63  1  0
M  END
>  <template_idx>  (14) 
4cra_ligand

>  <smiles>  (14) 
Nc1cc(=O)c2c(CC=CC(Cc3c(F)cc(F)cc3F)C(=O)Nc3c[nH]c4cccc(C=O)c4c3=O)c(F)ccc2o1

>  <qed>  (14) 
0.1293109917670194

$$$$
sample13
     RDKit          3D

 63 67  0  0  0  0  0  0  0  0999 V2000
   -0.8179   -1.6394    0.7994 C   0  0  0  0  0  0  0  0  0  0  0  0
   -0.1184   -2.4574    0.4599 O   0  0  0  0  0  0  0  0  0  0  0  0
   -3.0366   -1.3662    1.9276 C   0  0  0  0  0  0  0  0  0  0  0  0
   -1.8746   -1.9615    1.8596 C   0  0  0  0  0  0  0  0  0  0  0  0
   -3.9615   -1.6694    2.9129 C   0  0  0  0  0  0  0  0  0  0  0  0
   -3.6944   -2.5762    3.8805 C   0  0  0  0  0  0  0  0  0  0  0  0
   -2.4929   -3.2190    3.8019 C   0  0  0  0  0  0  0  0  0  0  0  0
   -1.6281   -2.9745    2.7659 C   0  0  0  0  0  0  0  0  0  0  0  0
   -2.1920   -4.1609    4.8198 C   0  0  0  0  0  0  0  0  0  0  0  0
   -3.0644   -4.3836    5.7980 C   0  0  0  0  0  0  0  0  0  0  0  0
   -4.3091   -3.7507    5.8538 C   0  0  0  0  0  0  0  0  0  0  0  0
   -4.9632   -3.9311    6.7005 H   0  0  0  0  0  0  0  0  0  0  0  0
   -4.6198   -2.8796    4.8871 C   0  0  0  0  0  0  0  0  0  0  0  0
   -0.9958   -4.7416    4.7861 O   0  0  0  0  0  0  0  0  0  0  0  0
   -0.7210   -0.3838    0.4021 N   0  0  0  0  0  0  0  0  0  0  0  0
   -0.3581   -0.0705   -0.9388 C   0  0  0  0  0  0  0  0  0  0  0  0
    0.5467    1.1297   -0.9595 C   0  0  0  0  0  0  0  0  0  0  0  0
    0.7885    1.7454    0.0636 O   0  0  0  0  0  0  0  0  0  0  0  0
   -1.6638    0.1541   -1.8165 C   0  0  0  0  0  0  0  0  0  0  0  0
   -2.5079   -1.0113   -2.2799 C   0  0  0  0  0  0  0  0  0  0  0  0
   -3.9003   -0.7712   -2.4828 C   0  0  0  0  0  0  0  0  0  0  0  0
   -2.0056   -2.2469   -2.6038 C   0  0  0  0  0  0  0  0  0  0  0  0
   -4.7238   -1.7696   -3.0349 C   0  0  0  0  0  0  0  0  0  0  0  0
   -2.8471   -3.2353   -3.1781 C   0  0  0  0  0  0  0  0  0  0  0  0
   -4.2084   -3.0146   -3.4070 C   0  0  0  0  0  0  0  0  0  0  0  0
    5.4942    3.3536   -1.3753 C   0  0  0  0  0  0  0  0  0  0  0  0
    6.0818    2.0728   -1.4203 C   0  0  0  0  0  0  0  0  0  0  0  0
    5.2627    1.0349   -1.6726 C   0  0  0  0  0  0  0  0  0  0  0  0
    3.9076    1.2193   -1.9409 C   0  0  0  0  0  0  0  0  0  0  0  0
    3.3843    2.5067   -1.9243 C   0  0  0  0  0  0  0  0  0  0  0  0
    4.2483    3.5694   -1.6589 C   0  0  0  0  0  0  0  0  0  0  0  0
    6.3053    4.2822   -1.0003 N   0  0  0  0  0  0  0  0  0  0  0  0
    5.8939    5.4770   -0.8688 C   0  0  0  0  0  0  0  0  0  0  0  0
    4.6590    5.7011   -1.1352 N   0  0  0  0  0  0  0  0  0  0  0  0
    6.6385    6.3570   -0.3290 N   0  0  0  0  0  0  0  0  0  0  0  0
    3.7971    4.9137   -1.6503 C   0  0  0  0  0  0  0  0  0  0  0  0
    1.9275    2.7337   -2.1491 C   0  0  0  0  0  0  0  0  0  0  0  0
    1.1123    1.5059   -2.1266 N   0  0  0  0  0  0  0  0  0  0  0  0
   -3.2384   -0.5658    1.1782 H   0  0  0  0  0  0  0  0  0  0  0  0
   -4.8745   -1.1445    2.8665 H   0  0  0  0  0  0  0  0  0  0  0  0
   -0.7190   -3.5394    2.6509 H   0  0  0  0  0  0  0  0  0  0  0  0
   -2.8086   -5.0601    6.6270 H   0  0  0  0  0  0  0  0  0  0  0  0
   -5.5590   -2.4020    4.9211 H   0  0  0  0  0  0  0  0  0  0  0  0
   -0.8576   -5.2518    5.4345 H   0  0  0  0  0  0  0  0  0  0  0  0
   -0.5449    0.3030    0.9967 H   0  0  0  0  0  0  0  0  0  0  0  0
    0.1802   -0.9223   -1.3412 H   0  0  0  0  0  0  0  0  0  0  0  0
   -2.3064    0.7922   -1.2154 H   0  0  0  0  0  0  0  0  0  0  0  0
   -1.3767    0.7304   -2.6923 H   0  0  0  0  0  0  0  0  0  0  0  0
   -4.3340    0.1611   -2.2253 H   0  0  0  0  0  0  0  0  0  0  0  0
   -0.9654   -2.5075   -2.4443 H   0  0  0  0  0  0  0  0  0  0  0  0
   -5.7845   -1.5863   -3.2125 H   0  0  0  0  0  0  0  0  0  0  0  0
   -2.4268   -4.1860   -3.4448 H   0  0  0  0  0  0  0  0  0  0  0  0
   -4.8194   -3.7604   -3.8610 H   0  0  0  0  0  0  0  0  0  0  0  0
    7.0869    1.8689   -1.2465 H   0  0  0  0  0  0  0  0  0  0  0  0
    5.6441   -0.0067   -1.6824 H   0  0  0  0  0  0  0  0  0  0  0  0
    3.2494    0.2765   -2.1309 H   0  0  0  0  0  0  0  0  0  0  0  0
    4.3329    6.6911   -1.0281 H   0  0  0  0  0  0  0  0  0  0  0  0
    6.3275    7.2972   -0.2289 H   0  0  0  0  0  0  0  0  0  0  0  0
    7.5842    6.1635   -0.1505 H   0  0  0  0  0  0  0  0  0  0  0  0
    2.7556    5.3917   -2.0236 O   0  0  0  0  0  0  0  0  0  0  0  0
    1.7785    3.2182   -3.1158 H   0  0  0  0  0  0  0  0  0  0  0  0
    1.5579    3.4570   -1.4477 H   0  0  0  0  0  0  0  0  0  0  0  0
    0.7748    1.0400   -2.9495 H   0  0  0  0  0  0  0  0  0  0  0  0
  1  2  2  0
  1  4  1  0
  1 15  1  0
  3  4  2  0
  3  5  1  0
  3 39  1  0
  4  8  1  0
  5  6  2  0
  5 40  1  0
  6  7  1  0
  6 13  1  0
  7  8  2  0
  7  9  1  0
  8 41  1  0
  9 10  2  0
  9 14  1  0
 10 11  1  0
 10 42  1  0
 11 12  1  0
 11 13  2  0
 13 43  1  0
 14 44  1  0
 15 16  1  0
 15 45  1  0
 16 17  1  0
 16 19  1  0
 16 46  1  0
 17 18  2  0
 17 38  1  0
 19 20  1  0
 19 47  1  0
 19 48  1  0
 20 21  2  0
 20 22  1  0
 21 23  1  0
 21 49  1  0
 22 24  2  0
 22 50  1  0
 23 25  2  0
 23 51  1  0
 24 25  1  0
 24 52  1  0
 25 53  1  0
 26 27  2  0
 26 31  1  0
 26 32  1  0
 27 28  1  0
 27 54  1  0
 28 29  2  0
 28 55  1  0
 29 30  1  0
 29 56  1  0
 30 31  2  0
 30 37  1  0
 31 36  1  0
 32 33  2  0
 33 34  1  0
 33 35  1  0
 34 36  1  0
 34 57  1  0
 35 58  1  0
 35 59  1  0
 36 60  2  0
 37 38  1  0
 37 61  1  0
 37 62  1  0
 38 63  1  0
M  END
>  <template_idx>  (15) 
4cra_ligand

>  <smiles>  (15) 
Nc1nc2cccc(CNC(=O)C(Cc3ccccc3)NC(=O)c3ccc4cccc(O)c4c3)c2c(=O)[nH]1

>  <qed>  (15) 
0.22852268112564525

$$$$
sample14
     RDKit          3D

 63 67  0  0  0  0  0  0  0  0999 V2000
   -1.2388   -1.6222    0.6894 C   0  0  0  0  0  0  0  0  0  0  0  0
   -0.5989   -2.4649    0.2440 O   0  0  0  0  0  0  0  0  0  0  0  0
   -2.1712   -1.9608    1.8586 C   0  0  0  0  0  0  0  0  0  0  0  0
   -3.3564   -1.3051    2.0568 C   0  0  0  0  0  0  0  0  0  0  0  0
   -4.1808   -1.5900    3.1075 C   0  0  0  0  0  0  0  0  0  0  0  0
   -3.8515   -2.5204    4.0391 C   0  0  0  0  0  0  0  0  0  0  0  0
   -2.6632   -3.2196    3.8526 C   0  0  0  0  0  0  0  0  0  0  0  0
   -1.8735   -2.9701    2.7378 C   0  0  0  0  0  0  0  0  0  0  0  0
   -2.3249   -4.1895    4.8210 C   0  0  0  0  0  0  0  0  0  0  0  0
   -3.0966   -4.3662    5.9016 C   0  0  0  0  0  0  0  0  0  0  0  0
   -4.3165   -3.6805    6.0748 C   0  0  0  0  0  0  0  0  0  0  0  0
   -4.9203   -3.8718    6.9472 H   0  0  0  0  0  0  0  0  0  0  0  0
   -4.6792   -2.7910    5.1225 C   0  0  0  0  0  0  0  0  0  0  0  0
   -1.1587   -4.7939    4.6496 O   0  0  0  0  0  0  0  0  0  0  0  0
   -1.3040    0.4134    0.8413 H   0  0  0  0  0  0  0  0  0  0  0  0
   -0.6037    0.0251   -0.9737 C   0  0  0  0  0  0  0  0  0  0  0  0
    0.3594    1.2503   -0.7805 C   0  0  0  0  0  0  0  0  0  0  0  0
    0.6616    1.1697    0.2407 H   0  0  0  0  0  0  0  0  0  0  0  0
   -1.7094    0.4357   -2.0439 C   0  0  0  0  0  0  0  0  0  0  0  0
   -2.6521   -0.6429   -2.4620 C   0  0  0  0  0  0  0  0  0  0  0  0
   -4.0801   -0.4271   -2.4368 C   0  0  0  0  0  0  0  0  0  0  0  0
   -2.2018   -1.8846   -2.9761 C   0  0  0  0  0  0  0  0  0  0  0  0
   -5.0013   -1.4123   -2.8725 C   0  0  0  0  0  0  0  0  0  0  0  0
   -3.1193   -2.8915   -3.4088 C   0  0  0  0  0  0  0  0  0  0  0  0
   -4.5257   -2.6646   -3.3711 C   0  0  0  0  0  0  0  0  0  0  0  0
    5.9553    3.1112   -1.6135 C   0  0  0  0  0  0  0  0  0  0  0  0
    6.5504    1.8414   -1.6477 C   0  0  0  0  0  0  0  0  0  0  0  0
    5.7277    0.8108   -1.6279 C   0  0  0  0  0  0  0  0  0  0  0  0
    4.3216    0.9807   -1.6432 C   0  0  0  0  0  0  0  0  0  0  0  0
    3.7793    2.2570   -1.7094 C   0  0  0  0  0  0  0  0  0  0  0  0
    4.6186    3.3459   -1.7254 C   0  0  0  0  0  0  0  0  0  0  0  0
    6.7673    4.0352   -1.4654 N   0  0  0  0  0  0  0  0  0  0  0  0
    6.3247    5.3401   -1.3552 C   0  0  0  0  0  0  0  0  0  0  0  0
    5.0638    5.6037   -1.6664 C   0  0  0  0  0  0  0  0  0  0  0  0
    7.1238    6.2437   -0.6989 N   0  0  0  0  0  0  0  0  0  0  0  0
    4.1691    4.6649   -1.8551 C   0  0  0  0  0  0  0  0  0  0  0  0
    2.3533    2.4351   -1.5762 C   0  0  0  0  0  0  0  0  0  0  0  0
    1.5606    1.2993   -1.6118 N   0  0  0  0  0  0  0  0  0  0  0  0
   -3.6299   -0.5273    1.2992 H   0  0  0  0  0  0  0  0  0  0  0  0
   -5.1195   -1.0635    3.1818 H   0  0  0  0  0  0  0  0  0  0  0  0
   -0.9534   -3.5189    2.5445 H   0  0  0  0  0  0  0  0  0  0  0  0
   -2.7347   -5.0061    6.7048 H   0  0  0  0  0  0  0  0  0  0  0  0
   -5.6163   -2.2758    5.2097 H   0  0  0  0  0  0  0  0  0  0  0  0
   -0.9349   -5.2169    4.3157 H   0  0  0  0  0  0  0  0  0  0  0  0
   -1.1618   -0.3347    0.2888 N   0  0  0  0  0  0  0  0  0  0  0  0
   -0.0577   -0.8327   -1.3208 H   0  0  0  0  0  0  0  0  0  0  0  0
   -1.1532    0.7520   -2.9091 H   0  0  0  0  0  0  0  0  0  0  0  0
   -2.2747    1.2731   -1.6076 H   0  0  0  0  0  0  0  0  0  0  0  0
   -4.4303    0.5152   -2.0765 H   0  0  0  0  0  0  0  0  0  0  0  0
   -1.1481   -2.0711   -3.0423 H   0  0  0  0  0  0  0  0  0  0  0  0
   -6.0450   -1.2351   -2.8587 H   0  0  0  0  0  0  0  0  0  0  0  0
   -2.7463   -3.8207   -3.7642 H   0  0  0  0  0  0  0  0  0  0  0  0
   -5.2069   -3.3911   -3.7245 H   0  0  0  0  0  0  0  0  0  0  0  0
    7.5898    1.6853   -1.6615 H   0  0  0  0  0  0  0  0  0  0  0  0
    6.1245   -0.2189   -1.5602 H   0  0  0  0  0  0  0  0  0  0  0  0
    3.6739    0.0646   -1.5712 H   0  0  0  0  0  0  0  0  0  0  0  0
    4.7222    6.6595   -1.6717 H   0  0  0  0  0  0  0  0  0  0  0  0
    6.6946    7.3174   -0.6696 O   0  0  0  0  0  0  0  0  0  0  0  0
    8.1876    6.0224   -0.1041 O   0  0  0  0  0  0  0  0  0  0  0  0
    3.1328    4.9518   -2.0865 H   0  0  0  0  0  0  0  0  0  0  0  0
    1.8379    3.5179   -1.4702 O   0  0  0  0  0  0  0  0  0  0  0  0
   -0.1624    2.1916   -0.8990 H   0  0  0  0  0  0  0  0  0  0  0  0
    1.7032    0.5673   -2.2099 H   0  0  0  0  0  0  0  0  0  0  0  0
  1  2  2  0
  1  3  1  0
  1 45  1  0
  3  4  2  0
  3  8  1  0
  4  5  1  0
  4 39  1  0
  5  6  2  0
  5 40  1  0
  6  7  1  0
  6 13  1  0
  7  8  2  0
  7  9  1  0
  8 41  1  0
  9 10  2  0
  9 14  1  0
 10 11  1  0
 10 42  1  0
 11 12  1  0
 11 13  2  0
 13 43  1  0
 14 44  1  0
 15 45  1  0
 16 17  1  0
 16 19  1  0
 16 45  1  0
 16 46  1  0
 17 18  1  0
 17 38  1  0
 17 62  1  0
 19 20  1  0
 19 47  1  0
 19 48  1  0
 20 21  2  0
 20 22  1  0
 21 23  1  0
 21 49  1  0
 22 24  2  0
 22 50  1  0
 23 25  2  0
 23 51  1  0
 24 25  1  0
 24 52  1  0
 25 53  1  0
 26 27  2  0
 26 31  1  0
 26 32  1  0
 27 28  1  0
 27 54  1  0
 28 29  2  0
 28 55  1  0
 29 30  1  0
 29 56  1  0
 30 31  2  0
 30 37  1  0
 31 36  1  0
 32 33  2  0
 33 34  1  0
 33 35  1  0
 34 36  2  0
 34 57  1  0
 35 58  1  0
 35 59  2  0
 36 60  1  0
 37 38  1  0
 37 61  2  0
 38 63  1  0
M  CHG  2  35   1  58  -1
M  END
>  <template_idx>  (16) 
4cra_ligand

>  <smiles>  (16) 
O=C(NC(CNC(=O)c1cccc2nc([N+](=O)[O-])ccc12)Cc1ccccc1)c1ccc2cccc(O)c2c1

>  <qed>  (16) 
0.19924846368398128

$$$$
sample15
     RDKit          3D

 63 66  0  0  0  0  0  0  0  0999 V2000
   -1.1972   -1.7537    0.6653 C   0  0  0  0  0  0  0  0  0  0  0  0
   -0.5757   -2.6127    0.2280 O   0  0  0  0  0  0  0  0  0  0  0  0
   -2.1577   -2.0770    1.7775 C   0  0  0  0  0  0  0  0  0  0  0  0
   -3.4169   -1.5577    1.8514 C   0  0  0  0  0  0  0  0  0  0  0  0
   -4.3141   -1.9068    2.8450 C   0  0  0  0  0  0  0  0  0  0  0  0
   -3.9479   -2.7277    3.8530 C   0  0  0  0  0  0  0  0  0  0  0  0
   -2.6826   -3.2704    3.8172 C   0  0  0  0  0  0  0  0  0  0  0  0
   -1.8251   -3.0060    2.7494 C   0  0  0  0  0  0  0  0  0  0  0  0
   -2.3218   -4.1216    4.9182 C   0  0  0  0  0  0  0  0  0  0  0  0
   -3.1798   -4.3139    5.9222 C   0  0  0  0  0  0  0  0  0  0  0  0
   -4.4700   -3.7917    5.9059 C   0  0  0  0  0  0  0  0  0  0  0  0
   -5.1631   -4.0127    6.7580 H   0  0  0  0  0  0  0  0  0  0  0  0
   -4.8529   -3.0408    4.8786 C   0  0  0  0  0  0  0  0  0  0  0  0
   -1.0698   -4.6375    4.9432 O   0  0  0  0  0  0  0  0  0  0  0  0
   -1.0232   -0.4976    0.2876 N   0  0  0  0  0  0  0  0  0  0  0  0
   -0.4379   -0.1324   -0.9663 C   0  0  0  0  0  0  0  0  0  0  0  0
    0.4144    1.0827   -0.7825 C   0  0  0  0  0  0  0  0  0  0  0  0
    0.2102    1.8196    0.1393 O   0  0  0  0  0  0  0  0  0  0  0  0
   -1.5230    0.1140   -2.0892 C   0  0  0  0  0  0  0  0  0  0  0  0
   -2.4637   -0.9918   -2.5537 C   0  0  0  0  0  0  0  0  0  0  0  0
   -3.9116   -0.8371   -2.5013 C   0  0  0  0  0  0  0  0  0  0  0  0
   -1.9902   -2.1855   -3.1515 C   0  0  0  0  0  0  0  0  0  0  0  0
   -4.7913   -1.8528   -2.9256 C   0  0  0  0  0  0  0  0  0  0  0  0
   -2.8841   -3.2076   -3.5791 C   0  0  0  0  0  0  0  0  0  0  0  0
   -4.3000   -3.0673   -3.4687 C   0  0  0  0  0  0  0  0  0  0  0  0
    4.5352    3.1179   -1.4717 C   0  0  0  0  0  0  0  0  0  0  0  0
    5.8428    2.5546   -1.3758 C   0  0  0  0  0  0  0  0  0  0  0  0
    5.6717    1.1628   -1.4280 C   0  0  0  0  0  0  0  0  0  0  0  0
    4.2975    0.8982   -1.5921 C   0  0  0  0  0  0  0  0  0  0  0  0
    3.6213    2.1054   -1.6163 N   0  0  0  0  0  0  0  0  0  0  0  0
    4.0221    4.1403   -1.6110 O   0  0  0  0  0  0  0  0  0  0  0  0
    6.6706    4.7665   -1.4956 H   0  0  0  0  0  0  0  0  0  0  0  0
    6.0280    5.7848   -1.5519 C   0  0  0  0  0  0  0  0  0  0  0  0
    5.8607    6.1923   -2.6678 H   0  0  0  0  0  0  0  0  0  0  0  0
    6.5127    6.7519   -0.6531 N   0  0  0  0  0  0  0  0  0  0  0  0
    4.6407    5.3273   -1.2117 C   0  0  0  0  0  0  0  0  0  0  0  0
    2.2354    2.4479   -1.6288 C   0  0  0  0  0  0  0  0  0  0  0  0
    1.3988    1.2722   -1.6851 N   0  0  0  0  0  0  0  0  0  0  0  0
   -3.6865   -0.7835    1.0895 H   0  0  0  0  0  0  0  0  0  0  0  0
   -5.2756   -1.4342    2.8654 H   0  0  0  0  0  0  0  0  0  0  0  0
   -0.8601   -3.4726    2.6511 H   0  0  0  0  0  0  0  0  0  0  0  0
   -2.8723   -4.9096    6.8099 H   0  0  0  0  0  0  0  0  0  0  0  0
   -5.8482   -2.6825    4.8418 H   0  0  0  0  0  0  0  0  0  0  0  0
   -0.9256   -5.1622    5.6081 H   0  0  0  0  0  0  0  0  0  0  0  0
   -1.0664    0.2104    0.8961 H   0  0  0  0  0  0  0  0  0  0  0  0
    0.1843   -1.0063   -1.2672 H   0  0  0  0  0  0  0  0  0  0  0  0
   -0.9610    0.3701   -2.9811 H   0  0  0  0  0  0  0  0  0  0  0  0
   -2.1244    0.9219   -1.6720 H   0  0  0  0  0  0  0  0  0  0  0  0
   -4.3197    0.0964   -2.1279 H   0  0  0  0  0  0  0  0  0  0  0  0
   -0.9105   -2.3396   -3.2802 H   0  0  0  0  0  0  0  0  0  0  0  0
   -5.8622   -1.7230   -2.8492 H   0  0  0  0  0  0  0  0  0  0  0  0
   -2.5043   -4.1376   -3.9900 H   0  0  0  0  0  0  0  0  0  0  0  0
   -4.9498   -3.8403   -3.7692 H   0  0  0  0  0  0  0  0  0  0  0  0
    6.7514    2.9597   -1.2288 H   0  0  0  0  0  0  0  0  0  0  0  0
    6.4300    0.3493   -1.3633 H   0  0  0  0  0  0  0  0  0  0  0  0
    3.7448   -0.0855   -1.6377 H   0  0  0  0  0  0  0  0  0  0  0  0
    4.6649    5.3158   -0.2807 H   0  0  0  0  0  0  0  0  0  0  0  0
    5.9700    7.5650   -0.4599 H   0  0  0  0  0  0  0  0  0  0  0  0
    7.4684    6.7468   -0.4106 H   0  0  0  0  0  0  0  0  0  0  0  0
    3.8584    6.2095   -1.3637 H   0  0  0  0  0  0  0  0  0  0  0  0
    2.0620    3.1320   -2.4770 H   0  0  0  0  0  0  0  0  0  0  0  0
    2.0395    3.0619   -0.7190 H   0  0  0  0  0  0  0  0  0  0  0  0
    1.5305    0.7020   -2.4176 H   0  0  0  0  0  0  0  0  0  0  0  0
  1  2  2  0
  1  3  1  0
  1 15  1  0
  3  4  2  0
  3  8  1  0
  4  5  1  0
  4 39  1  0
  5  6  2  0
  5 40  1  0
  6  7  1  0
  6 13  1  0
  7  8  2  0
  7  9  1  0
  8 41  1  0
  9 10  2  0
  9 14  1  0
 10 11  1  0
 10 42  1  0
 11 12  1  0
 11 13  2  0
 13 43  1  0
 14 44  1  0
 15 16  1  0
 15 45  1  0
 16 17  1  0
 16 19  1  0
 16 46  1  0
 17 18  2  0
 17 38  1  0
 19 20  1  0
 19 47  1  0
 19 48  1  0
 20 21  2  0
 20 22  1  0
 21 23  1  0
 21 49  1  0
 22 24  2  0
 22 50  1  0
 23 25  2  0
 23 51  1  0
 24 25  1  0
 24 52  1  0
 25 53  1  0
 26 27  2  0
 26 30  1  0
 26 31  1  0
 27 28  1  0
 27 54  1  0
 28 29  2  0
 28 55  1  0
 29 30  1  0
 29 56  1  0
 30 37  1  0
 31 36  1  0
 32 33  1  0
 33 34  1  0
 33 35  1  0
 33 36  1  0
 35 58  1  0
 35 59  1  0
 36 57  1  0
 36 60  1  0
 37 38  1  0
 37 61  1  0
 37 62  1  0
 38 63  1  0
M  END
>  <template_idx>  (17) 
4cra_ligand

>  <smiles>  (17) 
NCCOc1cccn1CNC(=O)C(Cc1ccccc1)NC(=O)c1ccc2cccc(O)c2c1

>  <qed>  (17) 
0.28307030874918443

$$$$
sample16
     RDKit          3D

 63 68  0  0  0  0  0  0  0  0999 V2000
   -0.9134   -1.3127    1.0394 C   0  0  0  0  0  0  0  0  0  0  0  0
    0.1970   -1.7186    1.1779 O   0  0  0  0  0  0  0  0  0  0  0  0
   -2.0114   -1.7839    2.0343 C   0  0  0  0  0  0  0  0  0  0  0  0
   -3.2717   -1.4107    1.8981 C   0  0  0  0  0  0  0  0  0  0  0  0
   -4.2687   -1.8159    2.7708 C   0  0  0  0  0  0  0  0  0  0  0  0
   -4.0032   -2.6228    3.8448 C   0  0  0  0  0  0  0  0  0  0  0  0
   -2.6942   -3.0866    3.9474 C   0  0  0  0  0  0  0  0  0  0  0  0
   -1.7010   -2.6901    3.0641 C   0  0  0  0  0  0  0  0  0  0  0  0
   -2.4248   -3.9631    5.0273 C   0  0  0  0  0  0  0  0  0  0  0  0
   -3.3761   -4.2374    5.9283 C   0  0  0  0  0  0  0  0  0  0  0  0
   -4.6794   -3.7328    5.8444 C   0  0  0  0  0  0  0  0  0  0  0  0
   -5.4040   -3.9413    6.6323 H   0  0  0  0  0  0  0  0  0  0  0  0
   -4.9669   -2.9528    4.8077 C   0  0  0  0  0  0  0  0  0  0  0  0
   -1.1759   -4.4051    5.1223 O   0  0  0  0  0  0  0  0  0  0  0  0
   -1.2683   -0.4617    0.1012 N   0  0  0  0  0  0  0  0  0  0  0  0
   -0.4133   -0.0692   -0.9824 C   0  0  0  0  0  0  0  0  0  0  0  0
    0.5973    1.0672   -0.7901 C   0  0  0  0  0  0  0  0  0  0  0  0
    0.7828    1.5491    0.3307 O   0  0  0  0  0  0  0  0  0  0  0  0
   -1.3469    0.1966   -2.2058 C   0  0  0  0  0  0  0  0  0  0  0  0
   -2.4591   -0.7745   -2.5613 C   0  0  0  0  0  0  0  0  0  0  0  0
   -3.8530   -0.5369   -2.3176 C   0  0  0  0  0  0  0  0  0  0  0  0
   -2.1521   -1.9633   -3.2843 C   0  0  0  0  0  0  0  0  0  0  0  0
   -4.8280   -1.4956   -2.6550 C   0  0  0  0  0  0  0  0  0  0  0  0
   -3.1508   -2.9312   -3.6275 C   0  0  0  0  0  0  0  0  0  0  0  0
   -4.5051   -2.7093   -3.3110 C   0  0  0  0  0  0  0  0  0  0  0  0
    5.8364    3.0469   -1.4852 C   0  0  0  0  0  0  0  0  0  0  0  0
    6.2935    1.7134   -1.4548 C   0  0  0  0  0  0  0  0  0  0  0  0
    5.3930    0.7617   -1.4969 C   0  0  0  0  0  0  0  0  0  0  0  0
    4.0164    1.0377   -1.6782 C   0  0  0  0  0  0  0  0  0  0  0  0
    3.5946    2.3563   -1.7629 C   0  0  0  0  0  0  0  0  0  0  0  0
    4.5373    3.3750   -1.6485 C   0  0  0  0  0  0  0  0  0  0  0  0
    6.7116    3.8788   -1.2146 N   0  0  0  0  0  0  0  0  0  0  0  0
    6.3604    5.1955   -1.0693 C   0  0  0  0  0  0  0  0  0  0  0  0
    5.1429    5.5733   -1.4040 C   0  0  0  0  0  0  0  0  0  0  0  0
    7.2625    6.0456   -0.4662 N   0  0  0  0  0  0  0  0  0  0  0  0
    4.1724    4.7221   -1.6715 C   0  0  0  0  0  0  0  0  0  0  0  0
    2.1094    2.6950   -1.8853 C   0  0  0  0  0  0  0  0  0  0  0  0
    1.2611    1.4877   -1.8544 N   0  0  0  0  0  0  0  0  0  0  0  0
   -3.4991   -0.5719    0.7641 N   0  0  0  0  0  0  0  0  0  0  0  0
   -5.2149   -1.4421    2.5317 H   0  0  0  0  0  0  0  0  0  0  0  0
   -0.7300   -3.0489    3.0931 H   0  0  0  0  0  0  0  0  0  0  0  0
   -3.1151   -4.8736    6.8229 H   0  0  0  0  0  0  0  0  0  0  0  0
   -5.9499   -2.5430    4.7130 H   0  0  0  0  0  0  0  0  0  0  0  0
   -1.0521   -4.9997    5.6743 H   0  0  0  0  0  0  0  0  0  0  0  0
   -2.5992   -0.2239    0.0267 N   0  0  0  0  0  0  0  0  0  0  0  0
    0.2085   -0.9140   -1.0577 H   0  0  0  0  0  0  0  0  0  0  0  0
   -0.7366    0.1873   -3.1190 H   0  0  0  0  0  0  0  0  0  0  0  0
   -1.8355    1.1618   -1.9981 H   0  0  0  0  0  0  0  0  0  0  0  0
   -4.1532    0.3850   -1.8573 H   0  0  0  0  0  0  0  0  0  0  0  0
   -1.1042   -2.1800   -3.5556 H   0  0  0  0  0  0  0  0  0  0  0  0
   -5.8788   -1.3195   -2.4107 H   0  0  0  0  0  0  0  0  0  0  0  0
   -2.8882   -3.8433   -4.1982 H   0  0  0  0  0  0  0  0  0  0  0  0
   -5.2438   -3.4022   -3.6106 H   0  0  0  0  0  0  0  0  0  0  0  0
    7.3023    1.4468   -1.3495 H   0  0  0  0  0  0  0  0  0  0  0  0
    5.6695   -0.2997   -1.3992 H   0  0  0  0  0  0  0  0  0  0  0  0
    3.3133    0.1522   -1.7038 H   0  0  0  0  0  0  0  0  0  0  0  0
    4.8688    6.6725   -1.2825 H   0  0  0  0  0  0  0  0  0  0  0  0
    6.9050    7.1853   -0.0711 O   0  0  0  0  0  0  0  0  0  0  0  0
    8.3164    5.6053   -0.2908 O   0  0  0  0  0  0  0  0  0  0  0  0
    3.1612    5.1319   -1.8370 H   0  0  0  0  0  0  0  0  0  0  0  0
    1.9495    3.2465   -2.7989 H   0  0  0  0  0  0  0  0  0  0  0  0
    1.8169    3.3540   -1.0727 H   0  0  0  0  0  0  0  0  0  0  0  0
    1.0878    1.0467   -2.7571 H   0  0  0  0  0  0  0  0  0  0  0  0
  1  2  2  0
  1  3  1  0
  1 15  1  0
  3  4  2  0
  3  8  1  0
  4  5  1  0
  4 39  1  0
  5  6  2  0
  5 40  1  0
  6  7  1  0
  6 13  1  0
  7  8  2  0
  7  9  1  0
  8 41  1  0
  9 10  2  0
  9 14  1  0
 10 11  1  0
 10 42  1  0
 11 12  1  0
 11 13  2  0
 13 43  1  0
 14 44  1  0
 15 16  1  0
 15 45  1  0
 16 17  1  0
 16 19  1  0
 16 46  1  0
 17 18  2  0
 17 38  1  0
 19 20  1  0
 19 47  1  0
 19 48  1  0
 20 21  2  0
 20 22  1  0
 21 23  1  0
 21 49  1  0
 22 24  2  0
 22 50  1  0
 23 25  2  0
 23 51  1  0
 24 25  1  0
 24 52  1  0
 25 53  1  0
 26 27  2  0
 26 31  1  0
 26 32  1  0
 27 28  1  0
 27 54  1  0
 28 29  2  0
 28 55  1  0
 29 30  1  0
 29 56  1  0
 30 31  2  0
 30 37  1  0
 31 36  1  0
 32 33  2  0
 33 34  1  0
 33 35  1  0
 34 36  2  0
 34 57  1  0
 35 58  2  0
 35 59  1  0
 36 60  1  0
 37 38  1  0
 37 61  1  0
 37 62  1  0
 38 63  1  0
 39 45  2  0
M  CHG  2  35   1  59  -1
M  END
>  <template_idx>  (18) 
4cra_ligand

>  <smiles>  (18) 
O=C(NCc1cccc2nc([N+](=O)[O-])ccc12)C(Cc1ccccc1)n1nnc2cc3cccc(O)c3cc2c1=O

>  <qed>  (18) 
0.17155932435586188

$$$$
sample17
     RDKit          3D

 63 67  0  0  0  0  0  0  0  0999 V2000
   -1.0824   -1.6071    0.5450 C   0  0  0  0  0  0  0  0  0  0  0  0
   -0.3842   -2.3832    0.0166 O   0  0  0  0  0  0  0  0  0  0  0  0
   -1.9512   -2.0784    1.6719 C   0  0  0  0  0  0  0  0  0  0  0  0
   -3.1609   -1.4880    1.9869 C   0  0  0  0  0  0  0  0  0  0  0  0
   -3.9584   -1.8838    3.0258 C   0  0  0  0  0  0  0  0  0  0  0  0
   -3.5707   -2.8998    3.8203 C   0  0  0  0  0  0  0  0  0  0  0  0
   -2.3336   -3.5266    3.5453 C   0  0  0  0  0  0  0  0  0  0  0  0
   -1.5963   -3.1529    2.4336 C   0  0  0  0  0  0  0  0  0  0  0  0
   -2.1133   -4.5103    4.5224 N   0  0  0  0  0  0  0  0  0  0  0  0
   -3.2086   -4.5119    5.3647 C   0  0  0  0  0  0  0  0  0  0  0  0
   -4.1064   -3.5813    5.0311 C   0  0  0  0  0  0  0  0  0  0  0  0
   -5.3225   -3.8488    6.6027 H   0  0  0  0  0  0  0  0  0  0  0  0
   -5.1395   -3.2792    5.7449 N   0  0  0  0  0  0  0  0  0  0  0  0
   -1.0934   -5.2313    4.6211 O   0  0  0  0  0  0  0  0  0  0  0  0
   -1.1148   -0.3515    0.2500 N   0  0  0  0  0  0  0  0  0  0  0  0
   -0.5452    0.1280   -0.9814 C   0  0  0  0  0  0  0  0  0  0  0  0
    0.2332    1.3621   -0.7043 C   0  0  0  0  0  0  0  0  0  0  0  0
    0.0110    2.0322    0.2956 O   0  0  0  0  0  0  0  0  0  0  0  0
   -1.6190    0.3289   -2.1284 C   0  0  0  0  0  0  0  0  0  0  0  0
   -2.5814   -0.8046   -2.4359 C   0  0  0  0  0  0  0  0  0  0  0  0
   -4.0283   -0.6248   -2.3678 C   0  0  0  0  0  0  0  0  0  0  0  0
   -2.1457   -2.0290   -2.9424 C   0  0  0  0  0  0  0  0  0  0  0  0
   -4.9306   -1.6382   -2.7884 C   0  0  0  0  0  0  0  0  0  0  0  0
   -3.0598   -3.0394   -3.3698 C   0  0  0  0  0  0  0  0  0  0  0  0
   -4.4662   -2.8633   -3.3134 C   0  0  0  0  0  0  0  0  0  0  0  0
    5.8082    3.3003   -1.2439 C   0  0  0  0  0  0  0  0  0  0  0  0
    6.2725    2.0503   -1.2187 C   0  0  0  0  0  0  0  0  0  0  0  0
    5.3865    1.0890   -1.2821 C   0  0  0  0  0  0  0  0  0  0  0  0
    4.0212    1.2996   -1.4251 C   0  0  0  0  0  0  0  0  0  0  0  0
    3.5769    2.5793   -1.4978 C   0  0  0  0  0  0  0  0  0  0  0  0
    4.4634    3.6024   -1.3755 C   0  0  0  0  0  0  0  0  0  0  0  0
    6.6423    4.3027   -1.0863 C   0  0  0  0  0  0  0  0  0  0  0  0
    6.2846    5.5959   -0.9952 C   0  0  0  0  0  0  0  0  0  0  0  0
    5.0285    5.8635   -1.2175 C   0  0  0  0  0  0  0  0  0  0  0  0
    7.1244    6.5633   -0.6441 O   0  0  0  0  0  0  0  0  0  0  0  0
    4.0502    4.9200   -1.4407 C   0  0  0  0  0  0  0  0  0  0  0  0
    2.0406    2.8197   -1.6132 C   0  0  0  0  0  0  0  0  0  0  0  0
    1.1628    1.6310   -1.6422 N   0  0  0  0  0  0  0  0  0  0  0  0
   -3.4513   -0.6096    1.3357 H   0  0  0  0  0  0  0  0  0  0  0  0
   -4.8659   -1.3279    3.1601 H   0  0  0  0  0  0  0  0  0  0  0  0
   -0.6590   -3.6549    2.1556 H   0  0  0  0  0  0  0  0  0  0  0  0
   -3.2199   -5.1598    6.2283 H   0  0  0  0  0  0  0  0  0  0  0  0
   -5.7130   -2.5417    5.5166 H   0  0  0  0  0  0  0  0  0  0  0  0
   -0.4876   -5.0010    4.1069 H   0  0  0  0  0  0  0  0  0  0  0  0
   -1.2009    0.2765    0.9363 H   0  0  0  0  0  0  0  0  0  0  0  0
    0.1298   -0.6730   -1.2973 H   0  0  0  0  0  0  0  0  0  0  0  0
   -1.0720    0.4985   -3.0369 H   0  0  0  0  0  0  0  0  0  0  0  0
   -2.2116    1.2082   -1.8209 H   0  0  0  0  0  0  0  0  0  0  0  0
   -4.4104    0.3089   -1.9926 H   0  0  0  0  0  0  0  0  0  0  0  0
   -1.0698   -2.2242   -3.0007 H   0  0  0  0  0  0  0  0  0  0  0  0
   -5.9909   -1.4794   -2.7106 H   0  0  0  0  0  0  0  0  0  0  0  0
   -2.6857   -3.9757   -3.7594 H   0  0  0  0  0  0  0  0  0  0  0  0
   -5.1289   -3.6140   -3.6385 H   0  0  0  0  0  0  0  0  0  0  0  0
    7.3602    1.8370   -1.1311 H   0  0  0  0  0  0  0  0  0  0  0  0
    5.6791    0.0367   -1.2038 H   0  0  0  0  0  0  0  0  0  0  0  0
    3.2905    0.4251   -1.4527 H   0  0  0  0  0  0  0  0  0  0  0  0
    4.7416    6.9204   -1.1735 H   0  0  0  0  0  0  0  0  0  0  0  0
    7.6805    4.2294   -0.9483 H   0  0  0  0  0  0  0  0  0  0  0  0
    6.8657    7.1398   -0.7081 H   0  0  0  0  0  0  0  0  0  0  0  0
    3.0596    5.2521   -1.5965 H   0  0  0  0  0  0  0  0  0  0  0  0
    1.8801    3.4100   -2.5060 H   0  0  0  0  0  0  0  0  0  0  0  0
    1.7494    3.4416   -0.7637 H   0  0  0  0  0  0  0  0  0  0  0  0
    1.1366    1.1419   -2.4628 H   0  0  0  0  0  0  0  0  0  0  0  0
  1  2  2  0
  1  3  1  0
  1 15  1  0
  3  4  2  0
  3  8  1  0
  4  5  1  0
  4 39  1  0
  5  6  2  0
  5 40  1  0
  6  7  1  0
  6 11  1  0
  7  8  2  0
  7  9  1  0
  8 41  1  0
  9 10  1  0
  9 14  1  0
 10 11  2  0
 10 42  1  0
 11 13  1  0
 12 13  1  0
 13 43  1  0
 14 44  1  0
 15 16  1  0
 15 45  1  0
 16 17  1  0
 16 19  1  0
 16 46  1  0
 17 18  2  0
 17 38  1  0
 19 20  1  0
 19 47  1  0
 19 48  1  0
 20 21  2  0
 20 22  1  0
 21 23  1  0
 21 49  1  0
 22 24  2  0
 22 50  1  0
 23 25  2  0
 23 51  1  0
 24 25  1  0
 24 52  1  0
 25 53  1  0
 26 27  2  0
 26 31  1  0
 26 32  1  0
 27 28  1  0
 27 54  1  0
 28 29  2  0
 28 55  1  0
 29 30  1  0
 29 56  1  0
 30 31  2  0
 30 37  1  0
 31 36  1  0
 32 33  2  0
 32 58  1  0
 33 34  1  0
 33 35  1  0
 34 36  2  0
 34 57  1  0
 35 59  1  0
 36 60  1  0
 37 38  1  0
 37 61  1  0
 37 62  1  0
 38 63  1  0
M  END
>  <template_idx>  (19) 
4cra_ligand

>  <smiles>  (19) 
Nc1cn(O)c2cc(C(=O)NC(Cc3ccccc3)C(=O)NCc3cccc4cc(O)ccc34)ccc12

>  <qed>  (19) 
0.21865311773490043

$$$$
sample18
     RDKit          3D

 63 67  0  0  0  0  0  0  0  0999 V2000
   -1.2112   -1.5953    0.4710 C   0  0  0  0  0  0  0  0  0  0  0  0
   -0.7797   -2.4839   -0.1592 O   0  0  0  0  0  0  0  0  0  0  0  0
   -2.1404   -1.9266    1.6152 C   0  0  0  0  0  0  0  0  0  0  0  0
   -3.2205   -1.1613    1.9218 C   0  0  0  0  0  0  0  0  0  0  0  0
   -4.0856   -1.5080    2.9515 C   0  0  0  0  0  0  0  0  0  0  0  0
   -3.8446   -2.5903    3.7431 C   0  0  0  0  0  0  0  0  0  0  0  0
   -2.7220   -3.3480    3.4795 C   0  0  0  0  0  0  0  0  0  0  0  0
   -1.9405   -3.0566    2.3708 C   0  0  0  0  0  0  0  0  0  0  0  0
   -2.4361   -4.4454    4.3590 C   0  0  0  0  0  0  0  0  0  0  0  0
   -3.2703   -4.6996    5.3844 C   0  0  0  0  0  0  0  0  0  0  0  0
   -4.4536   -3.9710    5.6045 C   0  0  0  0  0  0  0  0  0  0  0  0
   -5.1240   -4.2416    6.4020 H   0  0  0  0  0  0  0  0  0  0  0  0
   -4.7402   -2.9530    4.7615 C   0  0  0  0  0  0  0  0  0  0  0  0
   -1.3083   -5.1083    4.1828 O   0  0  0  0  0  0  0  0  0  0  0  0
   -0.9240   -0.3207    0.3057 N   0  0  0  0  0  0  0  0  0  0  0  0
   -0.4355    0.0490   -0.9902 C   0  0  0  0  0  0  0  0  0  0  0  0
    0.4634    1.2458   -0.8051 C   0  0  0  0  0  0  0  0  0  0  0  0
    0.5731    1.8524    0.2754 O   0  0  0  0  0  0  0  0  0  0  0  0
   -1.5658    0.3304   -2.0712 C   0  0  0  0  0  0  0  0  0  0  0  0
   -2.5229   -0.8091   -2.3372 C   0  0  0  0  0  0  0  0  0  0  0  0
   -3.9120   -0.7297   -1.9880 C   0  0  0  0  0  0  0  0  0  0  0  0
   -2.1237   -1.9501   -3.0588 C   0  0  0  0  0  0  0  0  0  0  0  0
   -4.7969   -1.7778   -2.2727 C   0  0  0  0  0  0  0  0  0  0  0  0
   -3.0229   -2.9891   -3.4152 C   0  0  0  0  0  0  0  0  0  0  0  0
   -4.3797   -2.9181   -3.0182 C   0  0  0  0  0  0  0  0  0  0  0  0
    5.6841    3.1785   -1.2587 C   0  0  0  0  0  0  0  0  0  0  0  0
    6.1638    1.8548   -1.2317 C   0  0  0  0  0  0  0  0  0  0  0  0
    5.2823    0.8491   -1.3886 C   0  0  0  0  0  0  0  0  0  0  0  0
    3.9137    1.1041   -1.6800 C   0  0  0  0  0  0  0  0  0  0  0  0
    3.5055    2.3862   -1.7772 C   0  0  0  0  0  0  0  0  0  0  0  0
    4.3797    3.4639   -1.5547 C   0  0  0  0  0  0  0  0  0  0  0  0
    6.4429    4.0864   -0.9662 N   0  0  0  0  0  0  0  0  0  0  0  0
    5.9995    5.3445   -0.9221 C   0  0  0  0  0  0  0  0  0  0  0  0
    4.7420    5.6258   -1.2923 C   0  0  0  0  0  0  0  0  0  0  0  0
    6.8422    6.3637   -0.3582 C   0  0  0  0  0  0  0  0  0  0  0  0
    6.0772    6.8107    0.4218 H   0  0  0  0  0  0  0  0  0  0  0  0
    2.0284    2.7524   -2.0382 C   0  0  0  0  0  0  0  0  0  0  0  0
    1.1169    1.5701   -1.9081 N   0  0  0  0  0  0  0  0  0  0  0  0
   -3.3803   -0.2261    1.3351 H   0  0  0  0  0  0  0  0  0  0  0  0
   -4.9429   -0.8817    3.1238 H   0  0  0  0  0  0  0  0  0  0  0  0
   -1.1198   -3.6960    2.1012 H   0  0  0  0  0  0  0  0  0  0  0  0
   -3.0197   -5.5048    6.0678 H   0  0  0  0  0  0  0  0  0  0  0  0
   -5.5891   -2.3346    4.9332 H   0  0  0  0  0  0  0  0  0  0  0  0
   -1.0950   -5.6676    4.7508 H   0  0  0  0  0  0  0  0  0  0  0  0
   -0.6669    0.2204    1.0166 H   0  0  0  0  0  0  0  0  0  0  0  0
    0.1231   -0.8185   -1.3332 H   0  0  0  0  0  0  0  0  0  0  0  0
   -1.0716    0.5211   -3.0029 H   0  0  0  0  0  0  0  0  0  0  0  0
   -2.1404    1.2011   -1.7089 H   0  0  0  0  0  0  0  0  0  0  0  0
   -4.2762    0.1745   -1.5308 H   0  0  0  0  0  0  0  0  0  0  0  0
   -1.0925   -2.0500   -3.3187 H   0  0  0  0  0  0  0  0  0  0  0  0
   -5.8132   -1.7153   -1.9367 H   0  0  0  0  0  0  0  0  0  0  0  0
   -2.6618   -3.8453   -3.9872 H   0  0  0  0  0  0  0  0  0  0  0  0
   -5.0520   -3.6831   -3.2682 H   0  0  0  0  0  0  0  0  0  0  0  0
    7.1882    1.6315   -1.0602 H   0  0  0  0  0  0  0  0  0  0  0  0
    5.5776   -0.1986   -1.2864 H   0  0  0  0  0  0  0  0  0  0  0  0
    3.1910    0.2129   -1.7912 H   0  0  0  0  0  0  0  0  0  0  0  0
    4.3506    6.6490   -1.3011 H   0  0  0  0  0  0  0  0  0  0  0  0
    7.0736    7.1858   -0.9505 H   0  0  0  0  0  0  0  0  0  0  0  0
    7.7383    5.9755    0.2235 H   0  0  0  0  0  0  0  0  0  0  0  0
    3.9139    4.6722   -1.6530 N   0  0  0  0  0  0  0  0  0  0  0  0
    1.6927    3.5954   -1.4085 H   0  0  0  0  0  0  0  0  0  0  0  0
    1.8871    3.2277   -3.0241 H   0  0  0  0  0  0  0  0  0  0  0  0
    0.9310    1.0702   -2.7489 H   0  0  0  0  0  0  0  0  0  0  0  0
  1  2  2  0
  1  3  1  0
  1 15  1  0
  3  4  2  0
  3  8  1  0
  4  5  1  0
  4 39  1  0
  5  6  2  0
  5 40  1  0
  6  7  1  0
  6 13  1  0
  7  8  2  0
  7  9  1  0
  8 41  1  0
  9 10  2  0
  9 14  1  0
 10 11  1  0
 10 42  1  0
 11 12  1  0
 11 13  2  0
 13 43  1  0
 14 44  1  0
 15 16  1  0
 15 45  1  0
 16 17  1  0
 16 19  1  0
 16 46  1  0
 17 18  2  0
 17 38  1  0
 19 20  1  0
 19 47  1  0
 19 48  1  0
 20 21  2  0
 20 22  1  0
 21 23  1  0
 21 49  1  0
 22 24  2  0
 22 50  1  0
 23 25  2  0
 23 51  1  0
 24 25  1  0
 24 52  1  0
 25 53  1  0
 26 27  2  0
 26 31  1  0
 26 32  1  0
 27 28  1  0
 27 54  1  0
 28 29  2  0
 28 55  1  0
 29 30  1  0
 29 56  1  0
 30 31  2  0
 30 37  1  0
 31 60  1  0
 32 33  2  0
 33 34  1  0
 33 35  1  0
 34 57  1  0
 34 60  2  0
 35 36  1  0
 35 58  1  0
 35 59  1  0
 37 38  1  0
 37 61  1  0
 37 62  1  0
 38 63  1  0
M  END
>  <template_idx>  (20) 
4cra_ligand

>  <smiles>  (20) 
Cc1cnc2c(CNC(=O)C(Cc3ccccc3)NC(=O)c3ccc4cccc(O)c4c3)cccc2n1

>  <qed>  (20) 
0.3126370384635229

$$$$
sample19
     RDKit          3D

 63 67  0  0  0  0  0  0  0  0999 V2000
   -1.0306   -1.5540    0.9208 C   0  0  0  0  0  0  0  0  0  0  0  0
   -0.1526   -2.3377    0.6699 O   0  0  0  0  0  0  0  0  0  0  0  0
   -2.1080   -1.9582    1.8697 C   0  0  0  0  0  0  0  0  0  0  0  0
   -3.3416   -1.3615    1.8890 C   0  0  0  0  0  0  0  0  0  0  0  0
   -4.3264   -1.7464    2.7545 C   0  0  0  0  0  0  0  0  0  0  0  0
   -4.1125   -2.6833    3.7359 C   0  0  0  0  0  0  0  0  0  0  0  0
   -2.9045   -3.3345    3.7164 C   0  0  0  0  0  0  0  0  0  0  0  0
   -1.9655   -3.0298    2.7323 C   0  0  0  0  0  0  0  0  0  0  0  0
   -2.6274   -4.3059    4.7493 C   0  0  0  0  0  0  0  0  0  0  0  0
   -3.5662   -4.5188    5.6923 C   0  0  0  0  0  0  0  0  0  0  0  0
   -4.7712   -3.8816    5.7075 C   0  0  0  0  0  0  0  0  0  0  0  0
   -5.4931   -4.1033    6.4822 H   0  0  0  0  0  0  0  0  0  0  0  0
   -5.0248   -2.9722    4.7416 C   0  0  0  0  0  0  0  0  0  0  0  0
   -1.4770   -4.9234    4.8015 O   0  0  0  0  0  0  0  0  0  0  0  0
   -0.9693   -0.3566    0.4346 N   0  0  0  0  0  0  0  0  0  0  0  0
   -0.3864   -0.0462   -0.7940 C   0  0  0  0  0  0  0  0  0  0  0  0
    0.4209    1.1724   -0.7461 C   0  0  0  0  0  0  0  0  0  0  0  0
    0.1631    2.0185    0.1220 O   0  0  0  0  0  0  0  0  0  0  0  0
   -1.4975    0.1731   -1.9134 C   0  0  0  0  0  0  0  0  0  0  0  0
   -2.4000   -0.8491   -2.4422 N   0  0  0  0  0  0  0  0  0  0  0  0
   -3.7745   -0.7926   -2.1801 C   0  0  0  0  0  0  0  0  0  0  0  0
   -2.0017   -1.7806   -3.3716 C   0  0  0  0  0  0  0  0  0  0  0  0
   -4.7068   -1.6018   -2.8463 C   0  0  0  0  0  0  0  0  0  0  0  0
   -2.8980   -2.5940   -4.1053 C   0  0  0  0  0  0  0  0  0  0  0  0
   -4.2891   -2.5085   -3.8722 C   0  0  0  0  0  0  0  0  0  0  0  0
    5.8970    3.2567   -1.2782 C   0  0  0  0  0  0  0  0  0  0  0  0
    6.4838    1.9846   -1.2832 C   0  0  0  0  0  0  0  0  0  0  0  0
    5.6841    0.9624   -1.3708 C   0  0  0  0  0  0  0  0  0  0  0  0
    4.2873    1.0911   -1.4954 C   0  0  0  0  0  0  0  0  0  0  0  0
    3.7389    2.3458   -1.5514 C   0  0  0  0  0  0  0  0  0  0  0  0
    4.5745    3.4451   -1.4365 C   0  0  0  0  0  0  0  0  0  0  0  0
    6.6883    4.1987   -1.0618 N   0  0  0  0  0  0  0  0  0  0  0  0
    6.2311    5.4621   -0.9480 C   0  0  0  0  0  0  0  0  0  0  0  0
    4.9790    5.7212   -1.2103 C   0  0  0  0  0  0  0  0  0  0  0  0
    7.0512    6.3827   -0.5676 N   0  0  0  0  0  0  0  0  0  0  0  0
    4.1028    4.7520   -1.4654 C   0  0  0  0  0  0  0  0  0  0  0  0
    2.2282    2.5217   -1.6807 C   0  0  0  0  0  0  0  0  0  0  0  0
    1.4111    1.3077   -1.6420 N   0  0  0  0  0  0  0  0  0  0  0  0
   -3.5047   -0.4768    1.1681 H   0  0  0  0  0  0  0  0  0  0  0  0
   -5.2397   -1.2742    2.7072 H   0  0  0  0  0  0  0  0  0  0  0  0
   -1.1287   -3.6035    2.6443 H   0  0  0  0  0  0  0  0  0  0  0  0
   -3.3806   -5.2449    6.4741 H   0  0  0  0  0  0  0  0  0  0  0  0
   -6.2200   -2.3835    4.7980 F   0  0  0  0  0  0  0  0  0  0  0  0
   -1.3460   -5.5495    5.3841 H   0  0  0  0  0  0  0  0  0  0  0  0
   -1.0721    0.4083    1.0124 H   0  0  0  0  0  0  0  0  0  0  0  0
    0.2156   -0.9192   -1.0534 H   0  0  0  0  0  0  0  0  0  0  0  0
   -0.9584    0.3987   -2.7959 H   0  0  0  0  0  0  0  0  0  0  0  0
   -2.1434    0.9456   -1.4590 H   0  0  0  0  0  0  0  0  0  0  0  0
   -4.1246   -0.0714   -1.4613 H   0  0  0  0  0  0  0  0  0  0  0  0
   -0.9232   -1.9038   -3.4959 H   0  0  0  0  0  0  0  0  0  0  0  0
   -5.7650   -1.4990   -2.6176 H   0  0  0  0  0  0  0  0  0  0  0  0
   -2.5230   -3.2951   -4.8584 H   0  0  0  0  0  0  0  0  0  0  0  0
   -4.9788   -3.0753   -4.4827 H   0  0  0  0  0  0  0  0  0  0  0  0
    7.5522    1.8451   -1.2494 H   0  0  0  0  0  0  0  0  0  0  0  0
    6.0978   -0.0590   -1.3752 H   0  0  0  0  0  0  0  0  0  0  0  0
    3.6531    0.1439   -1.5308 H   0  0  0  0  0  0  0  0  0  0  0  0
    4.5494    6.7882   -1.2115 H   0  0  0  0  0  0  0  0  0  0  0  0
    6.6913    7.2846   -0.4064 H   0  0  0  0  0  0  0  0  0  0  0  0
    7.9238    6.0594   -0.3887 H   0  0  0  0  0  0  0  0  0  0  0  0
    3.0449    5.0287   -1.6017 H   0  0  0  0  0  0  0  0  0  0  0  0
    2.0721    3.0371   -2.6411 H   0  0  0  0  0  0  0  0  0  0  0  0
    1.8669    3.2175   -0.9462 H   0  0  0  0  0  0  0  0  0  0  0  0
    1.5246    0.6423   -2.3698 H   0  0  0  0  0  0  0  0  0  0  0  0
  1  2  2  0
  1  3  1  0
  1 15  1  0
  3  4  2  0
  3  8  1  0
  4  5  1  0
  4 39  1  0
  5  6  2  0
  5 40  1  0
  6  7  1  0
  6 13  1  0
  7  8  2  0
  7  9  1  0
  8 41  1  0
  9 10  2  0
  9 14  1  0
 10 11  1  0
 10 42  1  0
 11 12  1  0
 11 13  2  0
 13 43  1  0
 14 44  1  0
 15 16  1  0
 15 45  1  0
 16 17  1  0
 16 19  1  0
 16 46  1  0
 17 18  2  0
 17 38  1  0
 19 20  1  0
 19 47  1  0
 19 48  1  0
 20 21  2  0
 20 22  1  0
 21 23  1  0
 21 49  1  0
 22 24  2  0
 22 50  1  0
 23 25  2  0
 23 51  1  0
 24 25  1  0
 24 52  1  0
 25 53  1  0
 26 27  2  0
 26 31  1  0
 26 32  1  0
 27 28  1  0
 27 54  1  0
 28 29  2  0
 28 55  1  0
 29 30  1  0
 29 56  1  0
 30 31  2  0
 30 37  1  0
 31 36  1  0
 32 33  2  0
 33 34  1  0
 33 35  1  0
 34 36  2  0
 34 57  1  0
 35 58  1  0
 35 59  1  0
 36 60  1  0
 37 38  1  0
 37 61  1  0
 37 62  1  0
 38 63  1  0
M  CHG  1  20   1
M  END
>  <template_idx>  (21) 
4cra_ligand

>  <smiles>  (21) 
Nc1ccc2c(CNC(=O)C(C[n+]3ccccc3)NC(=O)c3ccc4c(F)ccc(O)c4c3)cccc2n1

>  <qed>  (21) 
0.2506809045556666

$$$$
sample20
     RDKit          3D

 63 69  0  0  0  0  0  0  0  0999 V2000
   -0.7418   -1.4902    1.2762 C   0  0  0  0  0  0  0  0  0  0  0  0
    0.4104   -1.8261    1.2529 O   0  0  0  0  0  0  0  0  0  0  0  0
   -1.8346   -2.0287    2.2064 C   0  0  0  0  0  0  0  0  0  0  0  0
   -3.0335   -1.5509    2.1438 C   0  0  0  0  0  0  0  0  0  0  0  0
   -4.0312   -1.9825    2.9464 C   0  0  0  0  0  0  0  0  0  0  0  0
   -3.7960   -2.8868    3.9335 C   0  0  0  0  0  0  0  0  0  0  0  0
   -2.5329   -3.4334    3.9701 C   0  0  0  0  0  0  0  0  0  0  0  0
   -1.5728   -3.0601    3.0815 C   0  0  0  0  0  0  0  0  0  0  0  0
   -2.3346   -4.4110    4.9290 C   0  0  0  0  0  0  0  0  0  0  0  0
   -3.2836   -4.7078    5.8514 C   0  0  0  0  0  0  0  0  0  0  0  0
   -4.5494   -4.1321    5.8279 C   0  0  0  0  0  0  0  0  0  0  0  0
   -5.2715   -4.3144    6.6455 H   0  0  0  0  0  0  0  0  0  0  0  0
   -4.7888   -3.2592    4.8549 C   0  0  0  0  0  0  0  0  0  0  0  0
   -1.1388   -4.9514    4.9480 O   0  0  0  0  0  0  0  0  0  0  0  0
   -1.1487   -0.4703    0.4347 N   0  0  0  0  0  0  0  0  0  0  0  0
   -0.4247    0.0385   -0.7551 C   0  0  0  0  0  0  0  0  0  0  0  0
    0.6236    1.1711   -0.8001 C   0  0  0  0  0  0  0  0  0  0  0  0
    0.9760    1.6765    0.2704 O   0  0  0  0  0  0  0  0  0  0  0  0
   -1.6889    0.4596   -1.5807 C   0  0  0  0  0  0  0  0  0  0  0  0
   -2.5014   -0.5884   -2.3196 C   0  0  0  0  0  0  0  0  0  0  0  0
   -3.9247   -0.5220   -2.2926 C   0  0  0  0  0  0  0  0  0  0  0  0
   -1.8796   -1.6064   -3.0402 C   0  0  0  0  0  0  0  0  0  0  0  0
   -4.6920   -1.5168   -2.9417 C   0  0  0  0  0  0  0  0  0  0  0  0
   -2.6921   -2.5732   -3.6905 C   0  0  0  0  0  0  0  0  0  0  0  0
   -4.0949   -2.5424   -3.6382 C   0  0  0  0  0  0  0  0  0  0  0  0
    5.6748    3.1877   -1.4654 C   0  0  0  0  0  0  0  0  0  0  0  0
    6.1887    1.8787   -1.4679 C   0  0  0  0  0  0  0  0  0  0  0  0
    5.2913    0.8993   -1.6889 C   0  0  0  0  0  0  0  0  0  0  0  0
    3.8979    1.1376   -2.0554 C   0  0  0  0  0  0  0  0  0  0  0  0
    3.4895    2.3992   -1.9597 N   0  0  0  0  0  0  0  0  0  0  0  0
    4.3639    3.4142   -1.7202 C   0  0  0  0  0  0  0  0  0  0  0  0
    6.4928    4.1278   -1.1515 N   0  0  0  0  0  0  0  0  0  0  0  0
    6.0487    5.4313   -1.0607 C   0  0  0  0  0  0  0  0  0  0  0  0
    4.8137    5.6795   -1.4135 C   0  0  0  0  0  0  0  0  0  0  0  0
    6.8208    6.2914   -0.5463 N   0  0  0  0  0  0  0  0  0  0  0  0
    3.9352    4.7124   -1.7490 C   0  0  0  0  0  0  0  0  0  0  0  0
    2.0664    2.6993   -2.0527 C   0  0  0  0  0  0  0  0  0  0  0  0
    1.1618    1.5311   -1.9461 N   0  0  0  0  0  0  0  0  0  0  0  0
   -3.2878   -0.5403    1.2325 N   0  0  0  0  0  0  0  0  0  0  0  0
   -4.9469   -1.5072    2.7958 H   0  0  0  0  0  0  0  0  0  0  0  0
   -0.6053   -3.5578    2.9748 H   0  0  0  0  0  0  0  0  0  0  0  0
   -3.0054   -5.3405    6.6832 H   0  0  0  0  0  0  0  0  0  0  0  0
   -5.7175   -2.7600    4.7834 H   0  0  0  0  0  0  0  0  0  0  0  0
   -0.7164   -4.9436    4.4160 H   0  0  0  0  0  0  0  0  0  0  0  0
   -2.3813   -0.1560    0.4464 C   0  0  0  0  0  0  0  0  0  0  0  0
    0.2271   -0.8002   -0.9657 H   0  0  0  0  0  0  0  0  0  0  0  0
   -1.4379    1.2676   -2.2620 H   0  0  0  0  0  0  0  0  0  0  0  0
   -2.6039    0.7696   -0.5567 O   0  0  0  0  0  0  0  0  0  0  0  0
   -4.4556    0.2560   -1.8267 H   0  0  0  0  0  0  0  0  0  0  0  0
   -0.7678   -1.7168   -3.1243 H   0  0  0  0  0  0  0  0  0  0  0  0
   -5.8121   -1.4765   -2.9258 H   0  0  0  0  0  0  0  0  0  0  0  0
   -2.2115   -3.3638   -4.2602 H   0  0  0  0  0  0  0  0  0  0  0  0
   -4.6927   -3.2841   -4.1572 H   0  0  0  0  0  0  0  0  0  0  0  0
    7.1762    1.6826   -1.2721 H   0  0  0  0  0  0  0  0  0  0  0  0
    5.5498   -0.1576   -1.6304 H   0  0  0  0  0  0  0  0  0  0  0  0
    3.1699    0.1288   -2.4612 O   0  0  0  0  0  0  0  0  0  0  0  0
    4.4004    6.7737   -1.4131 H   0  0  0  0  0  0  0  0  0  0  0  0
    6.5154    7.1930   -0.3644 H   0  0  0  0  0  0  0  0  0  0  0  0
    7.6872    5.9936   -0.3131 H   0  0  0  0  0  0  0  0  0  0  0  0
    2.9485    5.0516   -1.9569 H   0  0  0  0  0  0  0  0  0  0  0  0
    1.9214    3.2258   -3.0126 H   0  0  0  0  0  0  0  0  0  0  0  0
    1.8009    3.3902   -1.2435 H   0  0  0  0  0  0  0  0  0  0  0  0
    0.9464    0.9911   -2.8226 H   0  0  0  0  0  0  0  0  0  0  0  0
  1  2  2  0
  1  3  1  0
  1 15  1  0
  3  4  2  0
  3  8  1  0
  4  5  1  0
  4 39  1  0
  5  6  2  0
  5 40  1  0
  6  7  1  0
  6 13  1  0
  7  8  2  0
  7  9  1  0
  8 41  1  0
  9 10  2  0
  9 14  1  0
 10 11  1  0
 10 42  1  0
 11 12  1  0
 11 13  2  0
 13 43  1  0
 14 44  1  0
 15 16  1  0
 15 45  1  0
 16 17  1  0
 16 19  1  0
 16 46  1  0
 17 18  2  0
 17 38  1  0
 19 20  1  0
 19 47  1  0
 19 48  1  0
 20 21  2  0
 20 22  1  0
 21 23  1  0
 21 49  1  0
 22 24  2  0
 22 50  1  0
 23 25  2  0
 23 51  1  0
 24 25  1  0
 24 52  1  0
 25 53  1  0
 26 27  1  0
 26 31  2  0
 26 32  1  0
 27 28  2  0
 27 54  1  0
 28 29  1  0
 28 55  1  0
 29 30  1  0
 29 56  2  0
 30 31  1  0
 30 37  1  0
 31 36  1  0
 32 33  2  0
 33 34  1  0
 33 35  1  0
 34 36  2  0
 34 57  1  0
 35 58  1  0
 35 59  1  0
 36 60  1  0
 37 38  1  0
 37 61  1  0
 37 62  1  0
 38 63  1  0
 39 45  2  0
 45 48  1  0
M  END
>  <template_idx>  (22) 
4cra_ligand

>  <smiles>  (22) 
Nc1ccc2c(ccc(=O)n2CNC(=O)C2C(c3ccccc3)Oc3nc4cc5cccc(O)c5cc4c(=O)n32)n1

>  <qed>  (22) 
0.28524497746747673

$$$$
sample21
     RDKit          3D

 63 68  0  0  0  0  0  0  0  0999 V2000
   -0.8919   -1.2865    0.9203 C   0  0  0  0  0  0  0  0  0  0  0  0
    0.3198   -1.4724    1.0382 O   0  0  0  0  0  0  0  0  0  0  0  0
   -1.9181   -1.9116    1.9178 C   0  0  0  0  0  0  0  0  0  0  0  0
   -3.2008   -1.6596    1.7374 C   0  0  0  0  0  0  0  0  0  0  0  0
   -4.1371   -2.1593    2.6084 C   0  0  0  0  0  0  0  0  0  0  0  0
   -3.7702   -2.9034    3.6725 C   0  0  0  0  0  0  0  0  0  0  0  0
   -2.4354   -3.2220    3.7913 C   0  0  0  0  0  0  0  0  0  0  0  0
   -1.5164   -2.7394    2.9154 C   0  0  0  0  0  0  0  0  0  0  0  0
   -2.0739   -4.0864    4.8468 C   0  0  0  0  0  0  0  0  0  0  0  0
   -2.9857   -4.4735    5.7446 C   0  0  0  0  0  0  0  0  0  0  0  0
   -4.3134   -4.1018    5.6692 C   0  0  0  0  0  0  0  0  0  0  0  0
   -4.9995   -4.3764    6.4609 H   0  0  0  0  0  0  0  0  0  0  0  0
   -4.6911   -3.3642    4.6246 C   0  0  0  0  0  0  0  0  0  0  0  0
   -0.8030   -4.4321    4.9308 O   0  0  0  0  0  0  0  0  0  0  0  0
   -1.3895   -0.5214   -0.0615 N   0  0  0  0  0  0  0  0  0  0  0  0
   -0.5357   -0.0261   -1.1290 C   0  0  0  0  0  0  0  0  0  0  0  0
    0.3232    1.1188   -0.7986 C   0  0  0  0  0  0  0  0  0  0  0  0
    0.2773    1.6546    0.3367 O   0  0  0  0  0  0  0  0  0  0  0  0
   -1.4227    0.2895   -2.3576 C   0  0  0  0  0  0  0  0  0  0  0  0
   -2.4464   -0.7489   -2.6959 C   0  0  0  0  0  0  0  0  0  0  0  0
   -3.8635   -0.5394   -2.5850 C   0  0  0  0  0  0  0  0  0  0  0  0
   -2.0319   -1.9752   -3.2486 C   0  0  0  0  0  0  0  0  0  0  0  0
   -4.7973   -1.5513   -2.9359 C   0  0  0  0  0  0  0  0  0  0  0  0
   -2.9676   -2.9785   -3.6025 C   0  0  0  0  0  0  0  0  0  0  0  0
   -4.3564   -2.7832   -3.4582 C   0  0  0  0  0  0  0  0  0  0  0  0
    5.6855    3.2674   -1.0918 C   0  0  0  0  0  0  0  0  0  0  0  0
    6.1601    1.9533   -1.0039 C   0  0  0  0  0  0  0  0  0  0  0  0
    5.2987    0.9567   -1.0794 C   0  0  0  0  0  0  0  0  0  0  0  0
    3.9196    1.1808   -1.3323 C   0  0  0  0  0  0  0  0  0  0  0  0
    3.4628    2.4778   -1.4846 C   0  0  0  0  0  0  0  0  0  0  0  0
    4.3677    3.5362   -1.3272 C   0  0  0  0  0  0  0  0  0  0  0  0
    6.5064    4.1750   -0.8678 N   0  0  0  0  0  0  0  0  0  0  0  0
    6.1021    5.4726   -0.7915 C   0  0  0  0  0  0  0  0  0  0  0  0
    4.8533    5.8102   -1.1142 C   0  0  0  0  0  0  0  0  0  0  0  0
    6.9646    6.3447   -0.3821 N   0  0  0  0  0  0  0  0  0  0  0  0
    3.9466    4.8591   -1.3878 C   0  0  0  0  0  0  0  0  0  0  0  0
    1.9736    2.7510   -1.7260 C   0  0  0  0  0  0  0  0  0  0  0  0
    1.1386    1.5449   -1.7783 N   0  0  0  0  0  0  0  0  0  0  0  0
   -3.5289   -0.8677    0.6638 N   0  0  0  0  0  0  0  0  0  0  0  0
   -5.1541   -1.8875    2.4153 H   0  0  0  0  0  0  0  0  0  0  0  0
   -0.5001   -2.9892    2.9722 H   0  0  0  0  0  0  0  0  0  0  0  0
   -2.6607   -5.0585    6.6378 H   0  0  0  0  0  0  0  0  0  0  0  0
   -5.7108   -3.0945    4.4856 H   0  0  0  0  0  0  0  0  0  0  0  0
   -0.6266   -5.0240    5.4973 H   0  0  0  0  0  0  0  0  0  0  0  0
   -2.6849   -0.4219   -0.1055 N   0  0  0  0  0  0  0  0  0  0  0  0
    0.1642   -0.8654   -1.2512 H   0  0  0  0  0  0  0  0  0  0  0  0
   -0.7792    0.3994   -3.2712 H   0  0  0  0  0  0  0  0  0  0  0  0
   -1.9748    1.2302   -2.1645 H   0  0  0  0  0  0  0  0  0  0  0  0
   -4.2403    0.3851   -2.2415 H   0  0  0  0  0  0  0  0  0  0  0  0
   -0.9520   -2.1853   -3.3817 F   0  0  0  0  0  0  0  0  0  0  0  0
   -5.8600   -1.3669   -2.8457 H   0  0  0  0  0  0  0  0  0  0  0  0
   -2.6137   -3.9272   -4.0076 H   0  0  0  0  0  0  0  0  0  0  0  0
   -5.0594   -3.5302   -3.7739 H   0  0  0  0  0  0  0  0  0  0  0  0
    7.2043    1.7452   -0.8595 H   0  0  0  0  0  0  0  0  0  0  0  0
    5.6024   -0.0811   -0.9308 H   0  0  0  0  0  0  0  0  0  0  0  0
    3.2159    0.2786   -1.3595 H   0  0  0  0  0  0  0  0  0  0  0  0
    4.4930    6.8990   -1.1788 H   0  0  0  0  0  0  0  0  0  0  0  0
    6.6473    7.2895   -0.2559 H   0  0  0  0  0  0  0  0  0  0  0  0
    7.8133    5.9821   -0.1687 H   0  0  0  0  0  0  0  0  0  0  0  0
    2.9437    5.2086   -1.5581 H   0  0  0  0  0  0  0  0  0  0  0  0
    1.8869    3.2905   -2.6378 H   0  0  0  0  0  0  0  0  0  0  0  0
    1.5720    3.4219   -0.9747 H   0  0  0  0  0  0  0  0  0  0  0  0
    1.0502    1.0899   -2.6809 H   0  0  0  0  0  0  0  0  0  0  0  0
  1  2  2  0
  1  3  1  0
  1 15  1  0
  3  4  2  0
  3  8  1  0
  4  5  1  0
  4 39  1  0
  5  6  2  0
  5 40  1  0
  6  7  1  0
  6 13  1  0
  7  8  2  0
  7  9  1  0
  8 41  1  0
  9 10  2  0
  9 14  1  0
 10 11  1  0
 10 42  1  0
 11 12  1  0
 11 13  2  0
 13 43  1  0
 14 44  1  0
 15 16  1  0
 15 45  1  0
 16 17  1  0
 16 19  1  0
 16 46  1  0
 17 18  2  0
 17 38  1  0
 19 20  1  0
 19 47  1  0
 19 48  1  0
 20 21  2  0
 20 22  1  0
 21 23  1  0
 21 49  1  0
 22 24  2  0
 22 50  1  0
 23 25  2  0
 23 51  1  0
 24 25  1  0
 24 52  1  0
 25 53  1  0
 26 27  2  0
 26 31  1  0
 26 32  1  0
 27 28  1  0
 27 54  1  0
 28 29  2  0
 28 55  1  0
 29 30  1  0
 29 56  1  0
 30 31  2  0
 30 37  1  0
 31 36  1  0
 32 33  2  0
 33 34  1  0
 33 35  1  0
 34 36  2  0
 34 57  1  0
 35 58  1  0
 35 59  1  0
 36 60  1  0
 37 38  1  0
 37 61  1  0
 37 62  1  0
 38 63  1  0
 39 45  2  0
M  END
>  <template_idx>  (23) 
4cra_ligand

>  <smiles>  (23) 
Nc1ccc2c(CNC(=O)C(Cc3ccccc3F)n3nnc4cc5cccc(O)c5cc4c3=O)cccc2n1

>  <qed>  (23) 
0.27468482985445963

$$$$
