template4w9c_ligand
     RDKit          3D

 55 57  0  0  0  0  0  0  0  0999 V2000
    0.3420   -0.2722    6.4105 C   0  0  0  0  0  0  0  0  0  0  0  0
   -0.2260   -0.3112    4.9895 C   0  0  0  0  0  0  0  0  0  0  0  0
   -1.6710   -0.8722    5.0965 C   0  0  0  0  0  0  0  0  0  0  0  0
    0.6330   -1.2122    4.0795 C   0  0  0  0  0  0  0  0  0  0  0  0
   -0.2340    1.1168    4.4925 C   0  0  0  0  0  0  0  0  0  0  0  0
   -0.7360    1.1438    3.0075 C   0  0  0  0  0  0  0  0  0  0  0  0
   -1.9400    0.9828    2.7845 O   0  0  0  0  0  0  0  0  0  0  0  0
    0.1640    1.4168    2.0145 N   0  0  0  0  0  0  0  0  0  0  0  0
    1.6290    1.7098    2.0805 C   0  0  0  0  0  0  0  0  0  0  0  0
    1.8970    2.6118    0.8755 C   0  0  0  0  0  0  0  0  0  0  0  0
    1.5470    3.9718    1.1825 O   0  0  0  0  0  0  0  0  0  0  0  0
    0.9760    2.0448   -0.1855 C   0  0  0  0  0  0  0  0  0  0  0  0
   -0.2850    1.5658    0.5785 C   0  0  0  0  0  0  0  0  0  0  0  0
   -0.7570    0.3808   -0.0055 C   0  0  0  0  0  0  0  0  0  0  0  0
   -0.2650   -0.6902    0.3225 O   0  0  0  0  0  0  0  0  0  0  0  0
   -1.7150    0.5068   -0.9695 N   0  0  0  0  0  0  0  0  0  0  0  0
   -2.2440   -0.6542   -1.7015 C   0  0  0  0  0  0  0  0  0  0  0  0
   -1.4690   -0.8742   -2.8835 C   0  0  0  0  0  0  0  0  0  0  0  0
   -1.7320   -2.0042   -3.6745 C   0  0  0  0  0  0  0  0  0  0  0  0
   -0.9900   -2.2752   -4.8315 C   0  0  0  0  0  0  0  0  0  0  0  0
   -0.4320   -0.0272   -3.2915 C   0  0  0  0  0  0  0  0  0  0  0  0
    0.3070   -0.2952   -4.4425 C   0  0  0  0  0  0  0  0  0  0  0  0
    0.0370   -1.4102   -5.2245 C   0  0  0  0  0  0  0  0  0  0  0  0
    0.7730   -1.6232   -6.3225 C   0  0  0  0  0  0  0  0  0  0  0  0
    2.1120   -1.3682   -6.4215 O   0  0  0  0  0  0  0  0  0  0  0  0
    2.4830   -1.7042   -7.6705 C   0  0  0  0  0  0  0  0  0  0  0  0
    1.3970   -2.1462   -8.3115 N   0  0  0  0  0  0  0  0  0  0  0  0
    0.3410   -2.0972   -7.4855 C   0  0  0  0  0  0  0  0  0  0  0  0
    0.3702   -1.2919    6.8222 H   0  0  0  0  0  0  0  0  0  0  0  0
   -0.2968    0.3612    7.0435 H   0  0  0  0  0  0  0  0  0  0  0  0
    1.3608    0.1420    6.3869 H   0  0  0  0  0  0  0  0  0  0  0  0
   -2.1215   -0.9186    4.0940 H   0  0  0  0  0  0  0  0  0  0  0  0
   -2.2735   -0.2133    5.7391 H   0  0  0  0  0  0  0  0  0  0  0  0
   -1.6411   -1.8818    5.5320 H   0  0  0  0  0  0  0  0  0  0  0  0
    1.6517   -0.8023    4.0140 H   0  0  0  0  0  0  0  0  0  0  0  0
    0.1874   -1.2495    3.0745 H   0  0  0  0  0  0  0  0  0  0  0  0
    0.6728   -2.2275    4.5009 H   0  0  0  0  0  0  0  0  0  0  0  0
    0.7842    1.5299    4.5440 H   0  0  0  0  0  0  0  0  0  0  0  0
   -0.9069    1.7206    5.1192 H   0  0  0  0  0  0  0  0  0  0  0  0
    2.2143    0.7813    2.0082 H   0  0  0  0  0  0  0  0  0  0  0  0
    1.8793    2.2290    3.0174 H   0  0  0  0  0  0  0  0  0  0  0  0
    2.9496    2.5590    0.5606 H   0  0  0  0  0  0  0  0  0  0  0  0
    1.7184    4.5202    0.4259 H   0  0  0  0  0  0  0  0  0  0  0  0
    1.4569    1.2010   -0.7018 H   0  0  0  0  0  0  0  0  0  0  0  0
    0.7103    2.8202   -0.9190 H   0  0  0  0  0  0  0  0  0  0  0  0
   -1.0796    2.3243    0.5215 H   0  0  0  0  0  0  0  0  0  0  0  0
   -2.0684    1.4171   -1.1849 H   0  0  0  0  0  0  0  0  0  0  0  0
   -3.2908   -0.4640   -1.9810 H   0  0  0  0  0  0  0  0  0  0  0  0
   -2.1921   -1.5458   -1.0593 H   0  0  0  0  0  0  0  0  0  0  0  0
   -2.5266   -2.6817   -3.3835 H   0  0  0  0  0  0  0  0  0  0  0  0
   -1.2118   -3.1561   -5.4229 H   0  0  0  0  0  0  0  0  0  0  0  0
   -0.1996    0.8524   -2.7021 H   0  0  0  0  0  0  0  0  0  0  0  0
    1.1058    0.3781   -4.7319 H   0  0  0  0  0  0  0  0  0  0  0  0
    3.4875   -1.6294   -8.0845 H   0  0  0  0  0  0  0  0  0  0  0  0
   -0.6800   -2.3913   -7.7241 H   0  0  0  0  0  0  0  0  0  0  0  0
  1  2  1  0
  1 29  1  0
  1 30  1  0
  1 31  1  0
  2  3  1  0
  2  4  1  0
  2  5  1  0
  3 32  1  0
  3 33  1  0
  3 34  1  0
  4 35  1  0
  4 36  1  0
  4 37  1  0
  5  6  1  0
  5 38  1  0
  5 39  1  0
  6  7  2  0
  6  8  1  0
  8  9  1  0
  8 13  1  0
  9 10  1  0
  9 40  1  0
  9 41  1  0
 10 11  1  0
 10 12  1  0
 10 42  1  0
 11 43  1  0
 12 13  1  0
 12 44  1  0
 12 45  1  0
 13 14  1  0
 13 46  1  0
 14 15  2  0
 14 16  1  0
 16 17  1  0
 16 47  1  0
 17 18  1  0
 17 48  1  0
 17 49  1  0
 18 19  2  0
 18 21  1  0
 19 20  1  0
 19 50  1  0
 20 23  2  0
 20 51  1  0
 21 22  2  0
 21 52  1  0
 22 23  1  0
 22 53  1  0
 23 24  1  0
 24 25  1  0
 24 28  2  0
 25 26  1  0
 26 27  2  0
 26 54  1  0
 27 28  1  0
 28 55  1  0
M  END
>  <template_idx>  (1) 
4w9c_ligand

>  <smiles>  (1) 
CC(C)(C)CC(=O)N1CC(O)CC1C(=O)NCc1ccc(-c2cnco2)cc1

$$$$
sample0
     RDKit          3D

 55 57  0  0  0  0  0  0  0  0999 V2000
    0.2799   -0.2480    5.9937 C   0  0  0  0  0  0  0  0  0  0  0  0
   -0.2227   -0.2183    4.5695 N   0  0  0  0  0  0  0  0  0  0  0  0
   -1.5890   -0.7962    4.5314 C   0  0  0  0  0  0  0  0  0  0  0  0
    0.7231   -1.0802    3.7762 C   0  0  0  0  0  0  0  0  0  0  0  0
   -0.2625    1.1983    4.1027 C   0  0  0  0  0  0  0  0  0  0  0  0
   -0.6747    1.3139    2.7002 C   0  0  0  0  0  0  0  0  0  0  0  0
   -1.8933    1.4821    2.4357 O   0  0  0  0  0  0  0  0  0  0  0  0
    0.3047    1.4533    1.8055 N   0  0  0  0  0  0  0  0  0  0  0  0
    1.6746    1.6585    2.0211 C   0  0  0  0  0  0  0  0  0  0  0  0
    2.1773    2.1888    0.6473 C   0  0  0  0  0  0  0  0  0  0  0  0
    2.0378    3.5981    0.5697 C   0  0  0  0  0  0  0  0  0  0  0  0
    1.2227    1.5122   -0.3662 C   0  0  0  0  0  0  0  0  0  0  0  0
   -0.0757    1.4140    0.4276 C   0  0  0  0  0  0  0  0  0  0  0  0
   -0.9336    0.2284    0.3296 C   0  0  0  0  0  0  0  0  0  0  0  0
   -0.7700   -0.7774    1.0758 O   0  0  0  0  0  0  0  0  0  0  0  0
   -1.9622    0.4275   -0.4855 N   0  0  0  0  0  0  0  0  0  0  0  0
   -2.4126   -0.5094   -1.4518 C   0  0  0  0  0  0  0  0  0  0  0  0
   -1.5053   -0.7408   -2.6102 C   0  0  0  0  0  0  0  0  0  0  0  0
   -1.8148   -1.7944   -3.3917 C   0  0  0  0  0  0  0  0  0  0  0  0
   -1.1088   -2.0356   -4.5753 C   0  0  0  0  0  0  0  0  0  0  0  0
   -0.4463    0.0447   -2.9486 C   0  0  0  0  0  0  0  0  0  0  0  0
    0.2826   -0.1987   -4.0981 C   0  0  0  0  0  0  0  0  0  0  0  0
   -0.0806   -1.2304   -4.9334 C   0  0  0  0  0  0  0  0  0  0  0  0
    0.6947   -1.4944   -6.0143 C   0  0  0  0  0  0  0  0  0  0  0  0
    1.7627   -0.7386   -6.2557 N   0  0  0  0  0  0  0  0  0  0  0  0
    2.3063   -1.2962   -7.4580 N   0  0  0  0  0  0  0  0  0  0  0  0
    1.4852   -2.3085   -7.9592 N   0  0  0  0  0  0  0  0  0  0  0  0
    0.4882   -2.4177   -7.0773 C   0  0  0  0  0  0  0  0  0  0  0  0
    1.3331    0.0952    5.9993 H   0  0  0  0  0  0  0  0  0  0  0  0
   -0.4046    0.4133    6.6352 H   0  0  0  0  0  0  0  0  0  0  0  0
    0.5262   -1.2996    6.3474 H   0  0  0  0  0  0  0  0  0  0  0  0
   -2.0011   -0.7021    3.4539 H   0  0  0  0  0  0  0  0  0  0  0  0
   -2.2038   -0.2295    5.1967 H   0  0  0  0  0  0  0  0  0  0  0  0
   -1.5399   -1.8485    4.8393 H   0  0  0  0  0  0  0  0  0  0  0  0
    1.7713   -0.7416    3.8815 H   0  0  0  0  0  0  0  0  0  0  0  0
    0.4408   -1.0777    2.6976 H   0  0  0  0  0  0  0  0  0  0  0  0
    0.6315   -2.1142    4.2052 H   0  0  0  0  0  0  0  0  0  0  0  0
    0.6897    1.7474    4.3082 H   0  0  0  0  0  0  0  0  0  0  0  0
   -1.0556    1.6721    4.6996 H   0  0  0  0  0  0  0  0  0  0  0  0
    2.1431    0.6681    2.2862 H   0  0  0  0  0  0  0  0  0  0  0  0
    1.8688    2.3259    2.8234 H   0  0  0  0  0  0  0  0  0  0  0  0
    3.2012    1.9186    0.5000 H   0  0  0  0  0  0  0  0  0  0  0  0
    1.8667    4.7480    0.5945 N   0  0  0  0  0  0  0  0  0  0  0  0
    1.5297    0.5193   -0.6025 H   0  0  0  0  0  0  0  0  0  0  0  0
    1.1492    2.0728   -1.2793 H   0  0  0  0  0  0  0  0  0  0  0  0
   -0.6916    2.2685    0.1924 H   0  0  0  0  0  0  0  0  0  0  0  0
   -2.5872    1.1781   -0.1327 H   0  0  0  0  0  0  0  0  0  0  0  0
   -3.3617   -0.1481   -1.8276 H   0  0  0  0  0  0  0  0  0  0  0  0
   -2.6078   -1.4683   -0.9517 H   0  0  0  0  0  0  0  0  0  0  0  0
   -2.6377   -2.4900   -3.1132 H   0  0  0  0  0  0  0  0  0  0  0  0
   -1.4611   -2.8763   -5.1977 H   0  0  0  0  0  0  0  0  0  0  0  0
   -0.1920    0.8873   -2.2913 H   0  0  0  0  0  0  0  0  0  0  0  0
    1.1471    0.3871   -4.3314 H   0  0  0  0  0  0  0  0  0  0  0  0
    3.1056   -1.5237   -7.3155 H   0  0  0  0  0  0  0  0  0  0  0  0
   -0.3474   -3.0172   -6.9785 H   0  0  0  0  0  0  0  0  0  0  0  0
  1  2  1  0
  1 29  1  0
  1 30  1  0
  1 31  1  0
  2  3  1  0
  2  4  1  0
  2  5  1  0
  3 32  1  0
  3 33  1  0
  3 34  1  0
  4 35  1  0
  4 36  1  0
  4 37  1  0
  5  6  1  0
  5 38  1  0
  5 39  1  0
  6  7  2  0
  6  8  1  0
  8  9  1  0
  8 13  1  0
  9 10  1  0
  9 40  1  0
  9 41  1  0
 10 11  1  0
 10 12  1  0
 10 42  1  0
 11 43  3  0
 12 13  1  0
 12 44  1  0
 12 45  1  0
 13 14  1  0
 13 46  1  0
 14 15  2  0
 14 16  1  0
 16 17  1  0
 16 47  1  0
 17 18  1  0
 17 48  1  0
 17 49  1  0
 18 19  2  0
 18 21  1  0
 19 20  1  0
 19 50  1  0
 20 23  2  0
 20 51  1  0
 21 22  2  0
 21 52  1  0
 22 23  1  0
 22 53  1  0
 23 24  1  0
 24 25  2  0
 24 28  1  0
 25 26  1  0
 26 27  1  0
 26 54  1  0
 27 28  2  0
 28 55  1  0
M  CHG  1   2   1
M  END
>  <template_idx>  (2) 
4w9c_ligand

>  <smiles>  (2) 
C[N+](C)(C)CC(=O)N1CC(C#N)CC1C(=O)NCc1ccc(-c2cn[nH]n2)cc1

>  <qed>  (2) 
0.6916308656629722

$$$$
sample1
     RDKit          3D

 55 56  0  0  0  0  0  0  0  0999 V2000
    0.6027   -0.3619    6.1842 C   0  0  0  0  0  0  0  0  0  0  0  0
   -0.1103   -0.3421    4.8338 C   0  0  0  0  0  0  0  0  0  0  0  0
   -1.5407   -0.9482    5.0081 C   0  0  0  0  0  0  0  0  0  0  0  0
    0.6963   -1.2382    3.8662 C   0  0  0  0  0  0  0  0  0  0  0  0
   -0.2829    1.0337    4.1791 C   0  0  0  0  0  0  0  0  0  0  0  0
   -0.7622    1.0164    2.7613 C   0  0  0  0  0  0  0  0  0  0  0  0
   -1.9477    0.7640    2.4558 O   0  0  0  0  0  0  0  0  0  0  0  0
    0.1146    1.4770    1.8597 N   0  0  0  0  0  0  0  0  0  0  0  0
    1.5323    1.7273    2.0480 C   0  0  0  0  0  0  0  0  0  0  0  0
    2.0982    1.8725    0.5982 C   0  0  0  0  0  0  0  0  0  0  0  0
    0.9026    3.8982    0.1749 C   0  0  0  0  0  0  0  0  0  0  0  0
    0.9402    2.4565   -0.1561 C   0  0  0  0  0  0  0  0  0  0  0  0
   -0.3037    1.7588    0.4908 C   0  0  0  0  0  0  0  0  0  0  0  0
   -0.6419    0.4636   -0.1164 C   0  0  0  0  0  0  0  0  0  0  0  0
    0.1375   -0.4262   -0.0364 O   0  0  0  0  0  0  0  0  0  0  0  0
   -1.8683    0.2917   -0.5856 N   0  0  0  0  0  0  0  0  0  0  0  0
   -2.2498   -0.7741   -1.4889 C   0  0  0  0  0  0  0  0  0  0  0  0
   -1.4232   -0.8312   -2.7018 C   0  0  0  0  0  0  0  0  0  0  0  0
   -1.8234   -1.7238   -3.6748 C   0  0  0  0  0  0  0  0  0  0  0  0
   -1.1029   -1.8569   -4.8274 C   0  0  0  0  0  0  0  0  0  0  0  0
   -0.2872   -0.1008   -2.8955 C   0  0  0  0  0  0  0  0  0  0  0  0
    0.4611   -0.2510   -4.0348 C   0  0  0  0  0  0  0  0  0  0  0  0
    0.0349   -1.1512   -5.0025 C   0  0  0  0  0  0  0  0  0  0  0  0
    0.7622   -1.3120   -6.0632 N   0  0  0  0  0  0  0  0  0  0  0  0
    1.6540   -0.8054   -6.0488 H   0  0  0  0  0  0  0  0  0  0  0  0
    2.0934   -1.5604   -8.3321 O   0  0  0  0  0  0  0  0  0  0  0  0
    1.4961   -2.2584   -7.7987 N   0  0  0  0  0  0  0  0  0  0  0  0
    0.5190   -2.1510   -7.0353 C   0  0  0  0  0  0  0  0  0  0  0  0
    0.5980   -1.3757    6.5721 H   0  0  0  0  0  0  0  0  0  0  0  0
    0.0797    0.3233    6.7868 H   0  0  0  0  0  0  0  0  0  0  0  0
    1.6090   -0.0475    6.0269 H   0  0  0  0  0  0  0  0  0  0  0  0
   -1.5812   -1.9464    5.1954 H   0  0  0  0  0  0  0  0  0  0  0  0
   -2.0874   -0.3707    5.7871 H   0  0  0  0  0  0  0  0  0  0  0  0
   -2.0600   -0.9402    4.0102 H   0  0  0  0  0  0  0  0  0  0  0  0
    1.7656   -0.8251    3.6934 H   0  0  0  0  0  0  0  0  0  0  0  0
    0.7339   -2.2898    4.2757 H   0  0  0  0  0  0  0  0  0  0  0  0
    0.2299   -1.2945    2.9023 H   0  0  0  0  0  0  0  0  0  0  0  0
    0.6861    1.5674    4.3179 H   0  0  0  0  0  0  0  0  0  0  0  0
   -1.0561    1.5939    4.8099 H   0  0  0  0  0  0  0  0  0  0  0  0
    2.0288    0.9048    2.6144 H   0  0  0  0  0  0  0  0  0  0  0  0
    1.6769    2.6475    2.5678 H   0  0  0  0  0  0  0  0  0  0  0  0
    2.9974    2.5059    0.5449 H   0  0  0  0  0  0  0  0  0  0  0  0
    0.8792    4.9716    0.4325 N   0  0  0  0  0  0  0  0  0  0  0  0
    2.3381    0.9275    0.2205 H   0  0  0  0  0  0  0  0  0  0  0  0
    0.9039    2.2833   -1.2629 H   0  0  0  0  0  0  0  0  0  0  0  0
   -1.2007    2.4473    0.4744 H   0  0  0  0  0  0  0  0  0  0  0  0
   -2.5814    0.7563   -0.0099 H   0  0  0  0  0  0  0  0  0  0  0  0
   -3.2749   -0.6426   -1.7289 H   0  0  0  0  0  0  0  0  0  0  0  0
   -2.1788   -1.7283   -0.9689 H   0  0  0  0  0  0  0  0  0  0  0  0
   -2.7528   -2.3177   -3.5519 H   0  0  0  0  0  0  0  0  0  0  0  0
   -1.5331   -2.5793   -5.5947 H   0  0  0  0  0  0  0  0  0  0  0  0
    0.0856    0.6204   -2.1738 H   0  0  0  0  0  0  0  0  0  0  0  0
    1.3468    0.3492   -4.2497 H   0  0  0  0  0  0  0  0  0  0  0  0
    2.9585   -1.5218   -8.1781 H   0  0  0  0  0  0  0  0  0  0  0  0
   -0.3120   -2.6857   -7.1753 H   0  0  0  0  0  0  0  0  0  0  0  0
  1  2  1  0
  1 29  1  0
  1 30  1  0
  1 31  1  0
  2  3  1  0
  2  4  1  0
  2  5  1  0
  3 32  1  0
  3 33  1  0
  3 34  1  0
  4 35  1  0
  4 36  1  0
  4 37  1  0
  5  6  1  0
  5 38  1  0
  5 39  1  0
  6  7  2  0
  6  8  1  0
  8  9  1  0
  8 13  1  0
  9 10  1  0
  9 40  1  0
  9 41  1  0
 10 12  1  0
 10 42  1  0
 10 44  1  0
 11 12  1  0
 11 43  3  0
 12 13  1  0
 12 45  1  0
 13 14  1  0
 13 46  1  0
 14 15  2  0
 14 16  1  0
 16 17  1  0
 16 47  1  0
 17 18  1  0
 17 48  1  0
 17 49  1  0
 18 19  2  0
 18 21  1  0
 19 20  1  0
 19 50  1  0
 20 23  2  0
 20 51  1  0
 21 22  2  0
 21 52  1  0
 22 23  1  0
 22 53  1  0
 23 24  1  0
 24 25  1  0
 24 28  1  0
 26 27  1  0
 26 54  1  0
 27 28  2  3
 28 55  1  0
M  END
>  <template_idx>  (3) 
4w9c_ligand

>  <smiles>  (3) 
CC(C)(C)CC(=O)N1CCC(C#N)C1C(=O)NCc1ccc(NC=NO)cc1

>  <qed>  (3) 
0.3005366776634803

$$$$
sample2
     RDKit          3D

 55 57  0  0  0  0  0  0  0  0999 V2000
    0.3142   -0.4370    6.1101 C   0  0  0  0  0  0  0  0  0  0  0  0
   -0.0666   -0.3352    4.5974 C   0  0  0  0  0  0  0  0  0  0  0  0
   -1.5043   -0.8571    4.3545 C   0  0  0  0  0  0  0  0  0  0  0  0
    0.9087   -1.1824    3.7991 C   0  0  0  0  0  0  0  0  0  0  0  0
   -0.0172    1.1258    4.1356 C   0  0  0  0  0  0  0  0  0  0  0  0
   -0.6223    1.4082    2.7983 C   0  0  0  0  0  0  0  0  0  0  0  0
   -1.8615    1.5214    2.6496 O   0  0  0  0  0  0  0  0  0  0  0  0
    0.2545    1.7210    1.8279 N   0  0  0  0  0  0  0  0  0  0  0  0
    1.6766    1.9349    1.9575 C   0  0  0  0  0  0  0  0  0  0  0  0
    2.1359    2.4274    0.5454 C   0  0  0  0  0  0  0  0  0  0  0  0
    2.0844    3.8295    0.4672 O   0  0  0  0  0  0  0  0  0  0  0  0
    1.0733    1.8403   -0.4169 C   0  0  0  0  0  0  0  0  0  0  0  0
   -0.1810    1.6633    0.4524 C   0  0  0  0  0  0  0  0  0  0  0  0
   -0.8306    0.3632    0.2388 C   0  0  0  0  0  0  0  0  0  0  0  0
   -0.4069   -0.6579    0.7900 O   0  0  0  0  0  0  0  0  0  0  0  0
   -1.9912    0.4334   -0.4625 N   0  0  0  0  0  0  0  0  0  0  0  0
   -2.4636   -0.5022   -1.4446 C   0  0  0  0  0  0  0  0  0  0  0  0
   -1.5784   -0.7604   -2.6261 C   0  0  0  0  0  0  0  0  0  0  0  0
   -2.0414   -1.7159   -3.5158 C   0  0  0  0  0  0  0  0  0  0  0  0
   -1.2853   -1.9674   -4.6371 C   0  0  0  0  0  0  0  0  0  0  0  0
   -0.4072   -0.0859   -2.8610 C   0  0  0  0  0  0  0  0  0  0  0  0
    0.3452   -0.3679   -3.9930 C   0  0  0  0  0  0  0  0  0  0  0  0
   -0.1308   -1.2842   -4.8757 C   0  0  0  0  0  0  0  0  0  0  0  0
    0.6000   -1.5904   -5.9429 N   0  0  0  0  0  0  0  0  0  0  0  0
    1.8019   -0.9821   -6.0943 N   0  0  0  0  0  0  0  0  0  0  0  0
    2.3288   -1.5834   -7.1211 C   0  0  0  0  0  0  0  0  0  0  0  0
    1.4830   -2.4793   -7.6959 N   0  0  0  0  0  0  0  0  0  0  0  0
    0.4119   -2.4805   -6.9513 C   0  0  0  0  0  0  0  0  0  0  0  0
    0.2640   -1.4607    6.3969 H   0  0  0  0  0  0  0  0  0  0  0  0
   -0.3591    0.1632    6.6471 H   0  0  0  0  0  0  0  0  0  0  0  0
    1.3097   -0.0679    6.2244 H   0  0  0  0  0  0  0  0  0  0  0  0
   -1.6859   -0.9697    3.2193 H   0  0  0  0  0  0  0  0  0  0  0  0
   -2.2025   -0.1491    4.7176 H   0  0  0  0  0  0  0  0  0  0  0  0
   -1.6514   -1.8199    4.8423 H   0  0  0  0  0  0  0  0  0  0  0  0
    1.9635   -0.8535    3.9973 H   0  0  0  0  0  0  0  0  0  0  0  0
    0.6953   -1.0877    2.7216 H   0  0  0  0  0  0  0  0  0  0  0  0
    0.7991   -2.2423    4.1161 H   0  0  0  0  0  0  0  0  0  0  0  0
    1.0040    1.4854    4.2458 H   0  0  0  0  0  0  0  0  0  0  0  0
   -0.6167    1.7144    4.8384 H   0  0  0  0  0  0  0  0  0  0  0  0
    2.1466    0.9762    2.2580 H   0  0  0  0  0  0  0  0  0  0  0  0
    1.9841    2.7010    2.7115 H   0  0  0  0  0  0  0  0  0  0  0  0
    3.1123    2.1026    0.3479 H   0  0  0  0  0  0  0  0  0  0  0  0
    1.1610    4.0129    0.7838 H   0  0  0  0  0  0  0  0  0  0  0  0
    1.3683    0.8335   -0.7869 H   0  0  0  0  0  0  0  0  0  0  0  0
    0.9207    2.4854   -1.2732 H   0  0  0  0  0  0  0  0  0  0  0  0
   -0.9198    2.4897    0.2688 H   0  0  0  0  0  0  0  0  0  0  0  0
   -2.6737    1.0258   -0.0269 H   0  0  0  0  0  0  0  0  0  0  0  0
   -3.3825   -0.1243   -1.7908 H   0  0  0  0  0  0  0  0  0  0  0  0
   -2.6756   -1.4602   -0.9512 H   0  0  0  0  0  0  0  0  0  0  0  0
   -3.0158   -2.2382   -3.3520 H   0  0  0  0  0  0  0  0  0  0  0  0
   -1.6470   -2.7842   -5.3051 H   0  0  0  0  0  0  0  0  0  0  0  0
   -0.0883    0.6600   -2.1897 H   0  0  0  0  0  0  0  0  0  0  0  0
    1.2830    0.1232   -4.2332 H   0  0  0  0  0  0  0  0  0  0  0  0
    3.3336   -1.4602   -7.4138 H   0  0  0  0  0  0  0  0  0  0  0  0
   -0.4570   -3.0544   -7.0999 H   0  0  0  0  0  0  0  0  0  0  0  0
  1  2  1  0
  1 29  1  0
  1 30  1  0
  1 31  1  0
  2  3  1  0
  2  4  1  0
  2  5  1  0
  3 32  1  0
  3 33  1  0
  3 34  1  0
  4 35  1  0
  4 36  1  0
  4 37  1  0
  5  6  1  0
  5 38  1  0
  5 39  1  0
  6  7  2  0
  6  8  1  0
  8  9  1  0
  8 13  1  0
  9 10  1  0
  9 40  1  0
  9 41  1  0
 10 11  1  0
 10 12  1  0
 10 42  1  0
 11 43  1  0
 12 13  1  0
 12 44  1  0
 12 45  1  0
 13 14  1  0
 13 46  1  0
 14 15  2  0
 14 16  1  0
 16 17  1  0
 16 47  1  0
 17 18  1  0
 17 48  1  0
 17 49  1  0
 18 19  2  0
 18 21  1  0
 19 20  1  0
 19 50  1  0
 20 23  2  0
 20 51  1  0
 21 22  2  0
 21 52  1  0
 22 23  1  0
 22 53  1  0
 23 24  1  0
 24 25  1  0
 24 28  1  0
 25 26  2  0
 26 27  1  0
 26 54  1  0
 27 28  2  0
 28 55  1  0
M  END
>  <template_idx>  (4) 
4w9c_ligand

>  <smiles>  (4) 
CC(C)(C)CC(=O)N1CC(O)CC1C(=O)NCc1ccc(-n2cncn2)cc1

>  <qed>  (4) 
0.8076016440090804

$$$$
sample3
     RDKit          3D

 55 57  0  0  0  0  0  0  0  0999 V2000
    0.0290   -0.3963    6.4127 C   0  0  0  0  0  0  0  0  0  0  0  0
   -0.1801   -0.2246    4.8609 C   0  0  0  0  0  0  0  0  0  0  0  0
   -1.5647   -0.7335    4.4446 C   0  0  0  0  0  0  0  0  0  0  0  0
    0.9145   -1.0408    4.1790 C   0  0  0  0  0  0  0  0  0  0  0  0
   -0.0947    1.2485    4.4833 C   0  0  0  0  0  0  0  0  0  0  0  0
   -0.5176    1.5000    3.0850 C   0  0  0  0  0  0  0  0  0  0  0  0
   -1.5475    1.8254    2.9836 H   0  0  0  0  0  0  0  0  0  0  0  0
    0.2320    1.4326    2.0120 C   0  0  0  0  0  0  0  0  0  0  0  0
    1.7227    1.4027    1.9487 C   0  0  0  0  0  0  0  0  0  0  0  0
    2.0372    2.2186    0.6518 C   0  0  0  0  0  0  0  0  0  0  0  0
    1.9796    3.6423    0.8616 C   0  0  0  0  0  0  0  0  0  0  0  0
    0.8802    1.8295   -0.3023 C   0  0  0  0  0  0  0  0  0  0  0  0
   -0.3603    1.6196    0.6301 C   0  0  0  0  0  0  0  0  0  0  0  0
   -1.3050    0.4784    0.3042 C   0  0  0  0  0  0  0  0  0  0  0  0
   -1.7131   -0.3434    1.1549 O   0  0  0  0  0  0  0  0  0  0  0  0
   -1.7558    0.5132   -0.9736 N   0  0  0  0  0  0  0  0  0  0  0  0
   -2.2893   -0.6375   -1.6808 C   0  0  0  0  0  0  0  0  0  0  0  0
   -1.4159   -0.9799   -2.8088 C   0  0  0  0  0  0  0  0  0  0  0  0
   -2.0388   -1.5286   -3.8868 C   0  0  0  0  0  0  0  0  0  0  0  0
   -1.3016   -1.7006   -5.0411 C   0  0  0  0  0  0  0  0  0  0  0  0
   -0.0840   -0.7345   -2.8277 C   0  0  0  0  0  0  0  0  0  0  0  0
    0.6191   -0.8871   -4.0108 C   0  0  0  0  0  0  0  0  0  0  0  0
    0.0016   -1.3676   -5.0974 C   0  0  0  0  0  0  0  0  0  0  0  0
    0.6981   -1.6012   -6.1688 N   0  0  0  0  0  0  0  0  0  0  0  0
    1.9066   -1.0073   -6.2943 N   0  0  0  0  0  0  0  0  0  0  0  0
    2.3088   -1.4017   -7.4765 C   0  0  0  0  0  0  0  0  0  0  0  0
    1.4707   -2.1861   -8.1467 N   0  0  0  0  0  0  0  0  0  0  0  0
    0.4253   -2.2755   -7.3007 C   0  0  0  0  0  0  0  0  0  0  0  0
   -0.0674   -1.4434    6.6304 H   0  0  0  0  0  0  0  0  0  0  0  0
   -0.7046    0.1843    6.8812 H   0  0  0  0  0  0  0  0  0  0  0  0
    0.9902   -0.0348    6.6553 H   0  0  0  0  0  0  0  0  0  0  0  0
   -1.6033   -0.8500    3.3201 H   0  0  0  0  0  0  0  0  0  0  0  0
   -2.3123    0.0080    4.6793 H   0  0  0  0  0  0  0  0  0  0  0  0
   -1.8192   -1.6807    4.9363 H   0  0  0  0  0  0  0  0  0  0  0  0
    1.9076   -0.7410    4.5429 H   0  0  0  0  0  0  0  0  0  0  0  0
    0.8845   -0.9024    3.0667 H   0  0  0  0  0  0  0  0  0  0  0  0
    0.7580   -2.1118    4.4425 H   0  0  0  0  0  0  0  0  0  0  0  0
    0.9360    1.6007    4.6738 H   0  0  0  0  0  0  0  0  0  0  0  0
   -0.7377    1.8491    5.1754 H   0  0  0  0  0  0  0  0  0  0  0  0
    2.1567    0.3761    1.8434 H   0  0  0  0  0  0  0  0  0  0  0  0
    2.1852    1.8543    2.7985 H   0  0  0  0  0  0  0  0  0  0  0  0
    3.0445    1.9532    0.3047 H   0  0  0  0  0  0  0  0  0  0  0  0
    1.9130    4.7812    1.0368 N   0  0  0  0  0  0  0  0  0  0  0  0
    1.1542    0.8794   -0.8455 H   0  0  0  0  0  0  0  0  0  0  0  0
    0.6965    2.6004   -1.0421 H   0  0  0  0  0  0  0  0  0  0  0  0
   -1.0043    2.5320    0.6226 H   0  0  0  0  0  0  0  0  0  0  0  0
   -1.7217    1.3991   -1.4768 H   0  0  0  0  0  0  0  0  0  0  0  0
   -3.3178   -0.3994   -2.0076 H   0  0  0  0  0  0  0  0  0  0  0  0
   -2.3571   -1.4739   -1.0552 H   0  0  0  0  0  0  0  0  0  0  0  0
   -3.1162   -1.8223   -3.8239 H   0  0  0  0  0  0  0  0  0  0  0  0
   -1.8004   -2.1965   -5.9074 H   0  0  0  0  0  0  0  0  0  0  0  0
    0.4525   -0.4713   -1.9077 H   0  0  0  0  0  0  0  0  0  0  0  0
    1.6660   -0.6011   -4.1165 H   0  0  0  0  0  0  0  0  0  0  0  0
    3.2624   -1.1603   -7.9086 H   0  0  0  0  0  0  0  0  0  0  0  0
   -0.5027   -2.7937   -7.5146 H   0  0  0  0  0  0  0  0  0  0  0  0
  1  2  1  0
  1 29  1  0
  1 30  1  0
  1 31  1  0
  2  3  1  0
  2  4  1  0
  2  5  1  0
  3 32  1  0
  3 33  1  0
  3 34  1  0
  4 35  1  0
  4 36  1  0
  4 37  1  0
  5  6  1  0
  5 38  1  0
  5 39  1  0
  6  7  1  0
  6  8  2  3
  8  9  1  0
  8 13  1  0
  9 10  1  0
  9 40  1  0
  9 41  1  0
 10 11  1  0
 10 12  1  0
 10 42  1  0
 11 43  3  0
 12 13  1  0
 12 44  1  0
 12 45  1  0
 13 14  1  0
 13 46  1  0
 14 15  2  0
 14 16  1  0
 16 17  1  0
 16 47  1  0
 17 18  1  0
 17 48  1  0
 17 49  1  0
 18 19  2  0
 18 21  1  0
 19 20  1  0
 19 50  1  0
 20 23  2  0
 20 51  1  0
 21 22  2  0
 21 52  1  0
 22 23  1  0
 22 53  1  0
 23 24  1  0
 24 25  1  0
 24 28  1  0
 25 26  2  0
 26 27  1  0
 26 54  1  0
 27 28  2  0
 28 55  1  0
M  END
>  <template_idx>  (5) 
4w9c_ligand

>  <smiles>  (5) 
CC(C)(C)CC=C1CC(C#N)CC1C(=O)NCc1ccc(-n2cncn2)cc1

>  <qed>  (5) 
0.8035418250942641

$$$$
sample4
     RDKit          3D

 55 57  0  0  0  0  0  0  0  0999 V2000
    0.2534   -0.4038    6.3735 C   0  0  0  0  0  0  0  0  0  0  0  0
   -0.1156   -0.3286    4.8711 C   0  0  0  0  0  0  0  0  0  0  0  0
   -1.5975   -0.6186    4.6214 C   0  0  0  0  0  0  0  0  0  0  0  0
    0.7209   -1.3689    4.1083 C   0  0  0  0  0  0  0  0  0  0  0  0
    0.2128    1.0877    4.3306 C   0  0  0  0  0  0  0  0  0  0  0  0
   -0.2573    1.3088    2.9485 C   0  0  0  0  0  0  0  0  0  0  0  0
   -1.3148    1.3848    2.8314 H   0  0  0  0  0  0  0  0  0  0  0  0
    0.4520    1.5112    1.9085 C   0  0  0  0  0  0  0  0  0  0  0  0
    1.9435    1.6962    1.8066 C   0  0  0  0  0  0  0  0  0  0  0  0
    2.1391    2.6155    0.5614 C   0  0  0  0  0  0  0  0  0  0  0  0
    1.0460    4.1939    0.9902 H   0  0  0  0  0  0  0  0  0  0  0  0
    0.9889    2.1426   -0.3716 C   0  0  0  0  0  0  0  0  0  0  0  0
   -0.1875    1.7384    0.5611 C   0  0  0  0  0  0  0  0  0  0  0  0
   -1.0385    0.5291    0.2936 C   0  0  0  0  0  0  0  0  0  0  0  0
   -1.0933   -0.5000    1.0061 O   0  0  0  0  0  0  0  0  0  0  0  0
   -1.9186    0.6224   -0.8444 C   0  0  0  0  0  0  0  0  0  0  0  0
   -2.3016   -0.6694   -1.5301 C   0  0  0  0  0  0  0  0  0  0  0  0
   -1.5409   -0.8933   -2.7747 C   0  0  0  0  0  0  0  0  0  0  0  0
   -2.0039   -1.8904   -3.6185 C   0  0  0  0  0  0  0  0  0  0  0  0
   -1.3075   -2.0966   -4.7755 C   0  0  0  0  0  0  0  0  0  0  0  0
   -0.3766   -0.2149   -3.0485 C   0  0  0  0  0  0  0  0  0  0  0  0
    0.2835   -0.4570   -4.2248 C   0  0  0  0  0  0  0  0  0  0  0  0
   -0.1895   -1.3881   -5.0580 C   0  0  0  0  0  0  0  0  0  0  0  0
    0.4865   -1.6563   -6.1220 N   0  0  0  0  0  0  0  0  0  0  0  0
    1.4479   -0.8037   -6.5274 N   0  0  0  0  0  0  0  0  0  0  0  0
    1.9810   -1.4243   -7.5641 C   0  0  0  0  0  0  0  0  0  0  0  0
    1.4496   -2.5921   -7.8818 N   0  0  0  0  0  0  0  0  0  0  0  0
    0.4969   -2.7258   -6.9686 C   0  0  0  0  0  0  0  0  0  0  0  0
    0.0640   -1.3864    6.6977 H   0  0  0  0  0  0  0  0  0  0  0  0
   -0.3385    0.3163    6.8716 H   0  0  0  0  0  0  0  0  0  0  0  0
    1.2982   -0.1729    6.4726 H   0  0  0  0  0  0  0  0  0  0  0  0
   -1.7833   -0.7553    3.5046 H   0  0  0  0  0  0  0  0  0  0  0  0
   -2.2035    0.2135    4.9488 H   0  0  0  0  0  0  0  0  0  0  0  0
   -1.8663   -1.5335    5.1312 H   0  0  0  0  0  0  0  0  0  0  0  0
    1.7813   -1.3217    4.4227 H   0  0  0  0  0  0  0  0  0  0  0  0
    0.6552   -1.2009    2.9915 H   0  0  0  0  0  0  0  0  0  0  0  0
    0.3451   -2.3818    4.3518 H   0  0  0  0  0  0  0  0  0  0  0  0
    1.3111    1.2446    4.3964 H   0  0  0  0  0  0  0  0  0  0  0  0
   -0.2402    1.8242    4.9934 H   0  0  0  0  0  0  0  0  0  0  0  0
    2.4564    0.7064    1.6130 H   0  0  0  0  0  0  0  0  0  0  0  0
    2.3859    2.1429    2.6905 H   0  0  0  0  0  0  0  0  0  0  0  0
    3.1011    2.4865    0.1407 H   0  0  0  0  0  0  0  0  0  0  0  0
    2.0117    3.9952    0.8278 O   0  0  0  0  0  0  0  0  0  0  0  0
    1.2918    1.2380   -0.9262 H   0  0  0  0  0  0  0  0  0  0  0  0
    0.7451    2.9236   -1.0702 H   0  0  0  0  0  0  0  0  0  0  0  0
   -0.9205    2.5838    0.5581 H   0  0  0  0  0  0  0  0  0  0  0  0
   -2.4278    1.7080   -1.1559 O   0  0  0  0  0  0  0  0  0  0  0  0
   -3.3914   -0.6102   -1.7796 H   0  0  0  0  0  0  0  0  0  0  0  0
   -2.1772   -1.5160   -0.8481 H   0  0  0  0  0  0  0  0  0  0  0  0
   -2.9101   -2.4985   -3.3743 H   0  0  0  0  0  0  0  0  0  0  0  0
   -1.6976   -2.8672   -5.4998 H   0  0  0  0  0  0  0  0  0  0  0  0
   -0.0092    0.5593   -2.3663 H   0  0  0  0  0  0  0  0  0  0  0  0
    1.1875    0.1089   -4.5370 H   0  0  0  0  0  0  0  0  0  0  0  0
    2.8211   -1.0326   -8.0609 H   0  0  0  0  0  0  0  0  0  0  0  0
   -0.1488   -3.5731   -6.8961 H   0  0  0  0  0  0  0  0  0  0  0  0
  1  2  1  0
  1 29  1  0
  1 30  1  0
  1 31  1  0
  2  3  1  0
  2  4  1  0
  2  5  1  0
  3 32  1  0
  3 33  1  0
  3 34  1  0
  4 35  1  0
  4 36  1  0
  4 37  1  0
  5  6  1  0
  5 38  1  0
  5 39  1  0
  6  7  1  0
  6  8  2  3
  8  9  1  0
  8 13  1  0
  9 10  1  0
  9 40  1  0
  9 41  1  0
 10 12  1  0
 10 42  1  0
 10 43  1  0
 11 43  1  0
 12 13  1  0
 12 44  1  0
 12 45  1  0
 13 14  1  0
 13 46  1  0
 14 15  2  0
 14 16  1  0
 16 17  1  0
 16 47  2  0
 17 18  1  0
 17 48  1  0
 17 49  1  0
 18 19  2  0
 18 21  1  0
 19 20  1  0
 19 50  1  0
 20 23  2  0
 20 51  1  0
 21 22  2  0
 21 52  1  0
 22 23  1  0
 22 53  1  0
 23 24  1  0
 24 25  1  0
 24 28  1  0
 25 26  2  0
 26 27  1  0
 26 54  1  0
 27 28  2  0
 28 55  1  0
M  END
>  <template_idx>  (6) 
4w9c_ligand

>  <smiles>  (6) 
CC(C)(C)CC=C1CC(O)CC1C(=O)C(=O)Cc1ccc(-n2cncn2)cc1

>  <qed>  (6) 
0.6138921872685322

$$$$
