template1z95_ligand
     RDKit          3D

 43 44  0  0  0  0  0  0  0  0999 V2000
    0.7575   -0.4806    2.8409 C   0  0  0  0  0  0  0  0  0  0  0  0
    0.3205   -0.6406    4.1529 C   0  0  0  0  0  0  0  0  0  0  0  0
    1.1155   -1.3216    5.0699 C   0  0  0  0  0  0  0  0  0  0  0  0
    0.6995   -1.4816    6.3419 F   0  0  0  0  0  0  0  0  0  0  0  0
    2.3455   -1.8406    4.6779 C   0  0  0  0  0  0  0  0  0  0  0  0
    2.7825   -1.6786    3.3669 C   0  0  0  0  0  0  0  0  0  0  0  0
    1.9885   -0.9996    2.4489 C   0  0  0  0  0  0  0  0  0  0  0  0
    2.5335   -0.8246    0.7969 S   0  0  0  0  0  0  0  0  0  0  0  0
    2.0735    0.5024    0.2689 O   0  0  0  0  0  0  0  0  0  0  0  0
    4.0305   -0.8946    0.7529 O   0  0  0  0  0  0  0  0  0  0  0  0
    1.8295   -2.1806   -0.2121 C   0  0  0  0  0  0  0  0  0  0  0  0
    1.2535   -1.7446   -1.5621 C   0  0  0  0  0  0  0  0  0  0  0  0
    2.2385   -0.9886   -2.2711 O   0  0  0  0  0  0  0  0  0  0  0  0
    0.8485   -2.9686   -2.3861 C   0  0  0  0  0  0  0  0  0  0  0  0
    0.0215   -0.8606   -1.3511 C   0  0  0  0  0  0  0  0  0  0  0  0
   -0.9835   -1.3066   -0.7981 O   0  0  0  0  0  0  0  0  0  0  0  0
    0.1975    0.4094   -1.7081 N   0  0  0  0  0  0  0  0  0  0  0  0
   -0.7215    1.3744   -1.6561 C   0  0  0  0  0  0  0  0  0  0  0  0
   -2.0615    1.1404   -1.3551 C   0  0  0  0  0  0  0  0  0  0  0  0
   -0.3325    2.6554   -2.0321 C   0  0  0  0  0  0  0  0  0  0  0  0
   -1.2775    3.6744   -2.0911 C   0  0  0  0  0  0  0  0  0  0  0  0
   -2.6125    3.4254   -1.7861 C   0  0  0  0  0  0  0  0  0  0  0  0
   -3.4945    4.5514   -1.8501 C   0  0  0  0  0  0  0  0  0  0  0  0
   -4.1845    5.4544   -1.9111 N   0  0  0  0  0  0  0  0  0  0  0  0
   -3.0325    2.1424   -1.4191 C   0  0  0  0  0  0  0  0  0  0  0  0
   -4.4965    1.7834   -1.0991 C   0  0  0  0  0  0  0  0  0  0  0  0
   -4.7135    1.9244    0.2049 F   0  0  0  0  0  0  0  0  0  0  0  0
   -5.3975    2.5254   -1.7371 F   0  0  0  0  0  0  0  0  0  0  0  0
   -4.7875    0.5264   -1.4251 F   0  0  0  0  0  0  0  0  0  0  0  0
    0.1393    0.0481    2.1244 H   0  0  0  0  0  0  0  0  0  0  0  0
   -0.6371   -0.2356    4.4596 H   0  0  0  0  0  0  0  0  0  0  0  0
    2.9631   -2.3710    5.3937 H   0  0  0  0  0  0  0  0  0  0  0  0
    3.7413   -2.0814    3.0612 H   0  0  0  0  0  0  0  0  0  0  0  0
    1.0232   -2.6547    0.3668 H   0  0  0  0  0  0  0  0  0  0  0  0
    2.6260   -2.9153   -0.4013 H   0  0  0  0  0  0  0  0  0  0  0  0
    2.4747   -0.2221   -1.7620 H   0  0  0  0  0  0  0  0  0  0  0  0
    0.4370   -2.6405   -3.3520 H   0  0  0  0  0  0  0  0  0  0  0  0
    0.0865   -3.5431   -1.8391 H   0  0  0  0  0  0  0  0  0  0  0  0
    1.7308   -3.6021   -2.5597 H   0  0  0  0  0  0  0  0  0  0  0  0
    1.1033    0.6637   -2.0469 H   0  0  0  0  0  0  0  0  0  0  0  0
   -2.3623    0.1417   -1.0597 H   0  0  0  0  0  0  0  0  0  0  0  0
    0.7033    2.8591   -2.2783 H   0  0  0  0  0  0  0  0  0  0  0  0
   -0.9707    4.6738   -2.3779 H   0  0  0  0  0  0  0  0  0  0  0  0
  1  2  2  0
  1  7  1  0
  1 30  1  0
  2  3  1  0
  2 31  1  0
  3  4  1  0
  3  5  2  0
  5  6  1  0
  5 32  1  0
  6  7  2  0
  6 33  1  0
  7  8  1  0
  8  9  2  0
  8 10  2  0
  8 11  1  0
 11 12  1  0
 11 34  1  0
 11 35  1  0
 12 13  1  0
 12 14  1  0
 12 15  1  0
 13 36  1  0
 14 37  1  0
 14 38  1  0
 14 39  1  0
 15 16  2  0
 15 17  1  0
 17 18  1  0
 17 40  1  0
 18 19  2  0
 18 20  1  0
 19 25  1  0
 19 41  1  0
 20 21  2  0
 20 42  1  0
 21 22  1  0
 21 43  1  0
 22 23  1  0
 22 25  2  0
 23 24  3  0
 25 26  1  0
 26 27  1  0
 26 28  1  0
 26 29  1  0
M  END
>  <template_idx>  (1) 
1z95_ligand

>  <smiles>  (1) 
CC(O)(CS(=O)(=O)c1ccc(F)cc1)C(=O)Nc1ccc(C#N)c(C(F)(F)F)c1

$$$$
sample0
     RDKit          3D

 43 44  0  0  0  0  0  0  0  0999 V2000
    0.7005   -0.4291    2.4512 C   0  0  0  0  0  0  0  0  0  0  0  0
    0.1490   -0.4932    3.6999 C   0  0  0  0  0  0  0  0  0  0  0  0
    0.8932   -1.0791    4.7151 C   0  0  0  0  0  0  0  0  0  0  0  0
    0.2350   -1.1979    6.3192 Cl  0  0  0  0  0  0  0  0  0  0  0  0
    2.1573   -1.5653    4.4767 C   0  0  0  0  0  0  0  0  0  0  0  0
    2.6799   -1.4778    3.2102 C   0  0  0  0  0  0  0  0  0  0  0  0
    1.9295   -0.9445    2.2231 C   0  0  0  0  0  0  0  0  0  0  0  0
    2.6802   -0.8241    0.6420 S   0  0  0  0  0  0  0  0  0  0  0  0
    2.1944    0.4074    0.0322 O   0  0  0  0  0  0  0  0  0  0  0  0
    4.0872   -0.9298    0.7204 O   0  0  0  0  0  0  0  0  0  0  0  0
    1.9663   -2.2984   -0.1208 C   0  0  0  0  0  0  0  0  0  0  0  0
    1.2822   -1.8191   -1.4208 C   0  0  0  0  0  0  0  0  0  0  0  0
    2.2325   -1.0664   -2.2035 N   0  0  0  0  0  0  0  0  0  0  0  0
    0.7554   -2.9852   -2.2722 C   0  0  0  0  0  0  0  0  0  0  0  0
    0.1699   -0.8634   -1.0183 C   0  0  0  0  0  0  0  0  0  0  0  0
   -0.7440   -1.2214   -0.2457 O   0  0  0  0  0  0  0  0  0  0  0  0
    0.2621    0.3537   -1.5334 N   0  0  0  0  0  0  0  0  0  0  0  0
   -0.7028    1.3491   -1.5646 C   0  0  0  0  0  0  0  0  0  0  0  0
   -1.9906    1.0672   -1.2784 C   0  0  0  0  0  0  0  0  0  0  0  0
   -0.3152    2.6493   -1.9281 C   0  0  0  0  0  0  0  0  0  0  0  0
   -1.2688    3.6348   -1.9557 C   0  0  0  0  0  0  0  0  0  0  0  0
   -2.6167    3.3428   -1.6177 C   0  0  0  0  0  0  0  0  0  0  0  0
   -3.5258    4.3552   -1.6101 C   0  0  0  0  0  0  0  0  0  0  0  0
   -4.2172    5.1799   -1.6017 N   0  0  0  0  0  0  0  0  0  0  0  0
   -2.9694    2.0343   -1.2707 C   0  0  0  0  0  0  0  0  0  0  0  0
   -4.3688    1.7520   -0.8888 C   0  0  0  0  0  0  0  0  0  0  0  0
   -4.6732    2.3991   -0.0172 H   0  0  0  0  0  0  0  0  0  0  0  0
   -5.0406    2.0262   -1.7368 H   0  0  0  0  0  0  0  0  0  0  0  0
   -4.4717    0.7048   -0.6475 H   0  0  0  0  0  0  0  0  0  0  0  0
    0.1251    0.0339    1.6447 H   0  0  0  0  0  0  0  0  0  0  0  0
   -0.8325   -0.1133    3.8961 H   0  0  0  0  0  0  0  0  0  0  0  0
    2.7416   -2.0268    5.3021 H   0  0  0  0  0  0  0  0  0  0  0  0
    3.6776   -1.8876    3.0206 H   0  0  0  0  0  0  0  0  0  0  0  0
    1.2223   -2.7195    0.5622 H   0  0  0  0  0  0  0  0  0  0  0  0
    2.7310   -2.9899   -0.3445 H   0  0  0  0  0  0  0  0  0  0  0  0
    2.8177   -0.3709   -2.7752 N   0  0  0  0  0  0  0  0  0  0  0  0
    0.0441   -2.4620   -3.3299 F   0  0  0  0  0  0  0  0  0  0  0  0
   -0.3074   -4.0870   -1.4571 Cl  0  0  0  0  0  0  0  0  0  0  0  0
    1.7238   -3.7213   -2.7627 F   0  0  0  0  0  0  0  0  0  0  0  0
    1.1868    0.6869   -1.8650 H   0  0  0  0  0  0  0  0  0  0  0  0
   -2.2782    0.0458   -1.0259 H   0  0  0  0  0  0  0  0  0  0  0  0
    0.7075    2.8839   -2.1803 H   0  0  0  0  0  0  0  0  0  0  0  0
   -1.0295    4.6668   -2.2432 H   0  0  0  0  0  0  0  0  0  0  0  0
  1  2  2  0
  1  7  1  0
  1 30  1  0
  2  3  1  0
  2 31  1  0
  3  4  1  0
  3  5  2  0
  5  6  1  0
  5 32  1  0
  6  7  2  0
  6 33  1  0
  7  8  1  0
  8  9  2  0
  8 10  2  0
  8 11  1  0
 11 12  1  0
 11 34  1  0
 11 35  1  0
 12 13  1  0
 12 14  1  0
 12 15  1  0
 13 36  2  0
 14 37  1  0
 14 38  1  0
 14 39  1  0
 15 16  2  0
 15 17  1  0
 17 18  1  0
 17 40  1  0
 18 19  2  0
 18 20  1  0
 19 25  1  0
 19 41  1  0
 20 21  2  0
 20 42  1  0
 21 22  1  0
 21 43  1  0
 22 23  1  0
 22 25  2  0
 23 24  3  0
 25 26  1  0
 26 27  1  0
 26 28  1  0
 26 29  1  0
M  END
>  <template_idx>  (2) 
1z95_ligand

>  <smiles>  (2) 
Cc1cc(NC(=O)C(CS(=O)(=O)c2ccc(Cl)cc2)(N=N)C(F)(F)Cl)ccc1C#N

>  <qed>  (2) 
0.4510589655408661

$$$$
sample1
     RDKit          3D

 43 44  0  0  0  0  0  0  0  0999 V2000
    0.6310   -0.3448    2.6077 C   0  0  0  0  0  0  0  0  0  0  0  0
    0.0730   -0.4724    3.8695 C   0  0  0  0  0  0  0  0  0  0  0  0
    0.7680   -1.2043    4.8344 C   0  0  0  0  0  0  0  0  0  0  0  0
    0.3594   -1.3500    5.8594 H   0  0  0  0  0  0  0  0  0  0  0  0
    2.0091   -1.7452    4.5106 C   0  0  0  0  0  0  0  0  0  0  0  0
    2.5377   -1.5897    3.2512 C   0  0  0  0  0  0  0  0  0  0  0  0
    1.8100   -0.9485    2.2941 C   0  0  0  0  0  0  0  0  0  0  0  0
    2.5486   -0.7559    0.6830 S   0  0  0  0  0  0  0  0  0  0  0  0
    1.9888    0.4100    0.0724 O   0  0  0  0  0  0  0  0  0  0  0  0
    3.9825   -0.8370    0.7503 O   0  0  0  0  0  0  0  0  0  0  0  0
    1.9153   -2.2260   -0.1279 C   0  0  0  0  0  0  0  0  0  0  0  0
    1.3694   -1.7858   -1.5020 C   0  0  0  0  0  0  0  0  0  0  0  0
    2.3617   -1.0667   -2.1574 O   0  0  0  0  0  0  0  0  0  0  0  0
    0.9847   -2.9954   -2.3930 C   0  0  0  0  0  0  0  0  0  0  0  0
    0.1307   -0.9568   -1.2228 C   0  0  0  0  0  0  0  0  0  0  0  0
   -0.8040   -1.3943   -0.5436 O   0  0  0  0  0  0  0  0  0  0  0  0
    0.1540    0.2521   -1.7589 N   0  0  0  0  0  0  0  0  0  0  0  0
   -0.7487    1.3031   -1.6646 C   0  0  0  0  0  0  0  0  0  0  0  0
   -2.0088    1.1071   -1.2001 C   0  0  0  0  0  0  0  0  0  0  0  0
   -0.3095    2.5527   -2.0718 C   0  0  0  0  0  0  0  0  0  0  0  0
   -1.2186    3.5931   -2.0966 C   0  0  0  0  0  0  0  0  0  0  0  0
   -2.5502    3.3548   -1.6795 C   0  0  0  0  0  0  0  0  0  0  0  0
   -3.5279    4.3353   -1.7241 C   0  0  0  0  0  0  0  0  0  0  0  0
   -4.1449    4.8882   -1.6138 O   0  0  0  0  0  0  0  0  0  0  0  0
   -2.9398    2.1098   -1.2457 C   0  0  0  0  0  0  0  0  0  0  0  0
   -4.3632    1.9526   -0.8367 C   0  0  0  0  0  0  0  0  0  0  0  0
   -4.5992    2.5330    0.0555 H   0  0  0  0  0  0  0  0  0  0  0  0
   -5.0731    2.4127   -1.5996 H   0  0  0  0  0  0  0  0  0  0  0  0
   -4.5914    0.8649   -0.6856 H   0  0  0  0  0  0  0  0  0  0  0  0
    0.1208    0.2630    1.8560 H   0  0  0  0  0  0  0  0  0  0  0  0
   -0.9006   -0.0465    4.1022 H   0  0  0  0  0  0  0  0  0  0  0  0
    2.5805   -2.3020    5.2821 H   0  0  0  0  0  0  0  0  0  0  0  0
    3.5366   -1.9945    3.0169 H   0  0  0  0  0  0  0  0  0  0  0  0
    1.1225   -2.6205    0.4972 H   0  0  0  0  0  0  0  0  0  0  0  0
    2.6926   -2.9248   -0.2547 H   0  0  0  0  0  0  0  0  0  0  0  0
    2.9803   -0.5325   -1.5557 H   0  0  0  0  0  0  0  0  0  0  0  0
    0.6101   -2.5949   -3.3516 H   0  0  0  0  0  0  0  0  0  0  0  0
    0.2320   -3.5892   -1.9060 H   0  0  0  0  0  0  0  0  0  0  0  0
    1.8324   -3.5990   -2.5686 H   0  0  0  0  0  0  0  0  0  0  0  0
    0.9588    0.5179   -2.2135 H   0  0  0  0  0  0  0  0  0  0  0  0
   -2.2908    0.1315   -0.7550 H   0  0  0  0  0  0  0  0  0  0  0  0
    0.7206    2.6996   -2.3589 H   0  0  0  0  0  0  0  0  0  0  0  0
   -0.9404    4.5953   -2.4548 H   0  0  0  0  0  0  0  0  0  0  0  0
  1  2  2  0
  1  7  1  0
  1 30  1  0
  2  3  1  0
  2 31  1  0
  3  4  1  0
  3  5  2  0
  5  6  1  0
  5 32  1  0
  6  7  2  0
  6 33  1  0
  7  8  1  0
  8  9  2  0
  8 10  2  0
  8 11  1  0
 11 12  1  0
 11 34  1  0
 11 35  1  0
 12 13  1  0
 12 14  1  0
 12 15  1  0
 13 36  1  0
 14 37  1  0
 14 38  1  0
 14 39  1  0
 15 16  2  0
 15 17  1  0
 17 18  1  0
 17 40  1  0
 18 19  2  0
 18 20  1  0
 19 25  1  0
 19 41  1  0
 20 21  2  0
 20 42  1  0
 21 22  1  0
 21 43  1  0
 22 23  1  0
 22 25  2  0
 23 24  2  0
 25 26  1  0
 26 27  1  0
 26 28  1  0
 26 29  1  0
M  END
>  <template_idx>  (3) 
1z95_ligand

>  <smiles>  (3) 
Cc1cc(NC(=O)C(C)(O)CS(=O)(=O)c2ccccc2)ccc1C=O

>  <qed>  (3) 
0.7663272958202495

$$$$
sample2
     RDKit          3D

 43 44  0  0  0  0  0  0  0  0999 V2000
    0.7732   -0.1953    2.2659 C   0  0  0  0  0  0  0  0  0  0  0  0
    0.1099   -0.1731    3.4939 C   0  0  0  0  0  0  0  0  0  0  0  0
    0.7200   -0.8871    4.5388 C   0  0  0  0  0  0  0  0  0  0  0  0
   -0.1426   -0.9838    6.3456 Br  0  0  0  0  0  0  0  0  0  0  0  0
    1.9203   -1.5383    4.3649 C   0  0  0  0  0  0  0  0  0  0  0  0
    2.5180   -1.4872    3.1195 C   0  0  0  0  0  0  0  0  0  0  0  0
    1.9278   -0.8041    2.1236 C   0  0  0  0  0  0  0  0  0  0  0  0
    2.9025   -0.7999    0.5722 S   0  0  0  0  0  0  0  0  0  0  0  0
    2.5814    0.4272   -0.1766 O   0  0  0  0  0  0  0  0  0  0  0  0
    4.2665   -1.0394    0.8214 O   0  0  0  0  0  0  0  0  0  0  0  0
    2.1853   -2.2158   -0.1799 C   0  0  0  0  0  0  0  0  0  0  0  0
    1.3236   -1.8439   -1.3666 C   0  0  0  0  0  0  0  0  0  0  0  0
    2.1855   -1.0851   -2.2551 O   0  0  0  0  0  0  0  0  0  0  0  0
    0.8096   -3.0365   -2.0933 C   0  0  0  0  0  0  0  0  0  0  0  0
    0.1775   -0.9225   -0.9551 C   0  0  0  0  0  0  0  0  0  0  0  0
   -0.8545   -1.3706   -0.3680 O   0  0  0  0  0  0  0  0  0  0  0  0
    0.3236    0.3574   -1.3201 N   0  0  0  0  0  0  0  0  0  0  0  0
   -0.6406    1.3700   -1.4149 C   0  0  0  0  0  0  0  0  0  0  0  0
   -1.9448    1.0763   -1.2252 C   0  0  0  0  0  0  0  0  0  0  0  0
   -0.2566    2.6817   -1.7246 C   0  0  0  0  0  0  0  0  0  0  0  0
   -1.2173    3.6646   -1.8168 C   0  0  0  0  0  0  0  0  0  0  0  0
   -2.5902    3.3716   -1.5860 C   0  0  0  0  0  0  0  0  0  0  0  0
   -3.5062    4.3454   -1.6609 O   0  0  0  0  0  0  0  0  0  0  0  0
   -4.2577    4.0980   -1.3168 H   0  0  0  0  0  0  0  0  0  0  0  0
   -2.9214    2.0400   -1.2731 C   0  0  0  0  0  0  0  0  0  0  0  0
   -4.3442    1.7212   -0.9613 C   0  0  0  0  0  0  0  0  0  0  0  0
   -4.6918    2.2887   -0.0801 H   0  0  0  0  0  0  0  0  0  0  0  0
   -5.0251    1.9877   -1.8202 H   0  0  0  0  0  0  0  0  0  0  0  0
   -4.4419    0.6385   -0.7747 H   0  0  0  0  0  0  0  0  0  0  0  0
    1.4701   -2.5341    0.5872 H   0  0  0  0  0  0  0  0  0  0  0  0
   -0.8135    0.3090    3.6102 H   0  0  0  0  0  0  0  0  0  0  0  0
    2.4181   -2.1050    5.1619 H   0  0  0  0  0  0  0  0  0  0  0  0
    3.5243   -1.9260    2.9689 H   0  0  0  0  0  0  0  0  0  0  0  0
    0.2970    0.2673    1.3707 H   0  0  0  0  0  0  0  0  0  0  0  0
    2.9347   -2.8754   -0.5262 H   0  0  0  0  0  0  0  0  0  0  0  0
    1.6520   -0.9364   -2.9855 H   0  0  0  0  0  0  0  0  0  0  0  0
   -0.0924   -2.6670   -3.0590 F   0  0  0  0  0  0  0  0  0  0  0  0
    0.1769   -3.9252   -1.2947 F   0  0  0  0  0  0  0  0  0  0  0  0
    1.7427   -3.7044   -2.6982 F   0  0  0  0  0  0  0  0  0  0  0  0
    1.2580    0.7256   -1.4404 H   0  0  0  0  0  0  0  0  0  0  0  0
   -2.2575    0.0616   -1.0411 H   0  0  0  0  0  0  0  0  0  0  0  0
    0.7621    2.9248   -1.9178 H   0  0  0  0  0  0  0  0  0  0  0  0
   -0.9627    4.6998   -2.0126 H   0  0  0  0  0  0  0  0  0  0  0  0
  1  2  2  0
  1  7  1  0
  1 34  1  0
  2  3  1  0
  2 31  1  0
  3  4  1  0
  3  5  2  0
  5  6  1  0
  5 32  1  0
  6  7  2  0
  6 33  1  0
  7  8  1  0
  8  9  2  0
  8 10  2  0
  8 11  1  0
 11 12  1  0
 11 30  1  0
 11 35  1  0
 12 13  1  0
 12 14  1  0
 12 15  1  0
 13 36  1  0
 14 37  1  0
 14 38  1  0
 14 39  1  0
 15 16  2  0
 15 17  1  0
 17 18  1  0
 17 40  1  0
 18 19  2  0
 18 20  1  0
 19 25  1  0
 19 41  1  0
 20 21  2  0
 20 42  1  0
 21 22  1  0
 21 43  1  0
 22 23  1  0
 22 25  2  0
 23 24  1  0
 25 26  1  0
 26 27  1  0
 26 28  1  0
 26 29  1  0
M  END
>  <template_idx>  (4) 
1z95_ligand

>  <smiles>  (4) 
Cc1cc(NC(=O)C(O)(CS(=O)(=O)c2ccc(Br)cc2)C(F)(F)F)ccc1O

>  <qed>  (4) 
0.5686296507585206

$$$$
sample3
     RDKit          3D

 43 44  0  0  0  0  0  0  0  0999 V2000
    0.8384   -0.2407    2.5143 C   0  0  0  0  0  0  0  0  0  0  0  0
    0.2821   -0.2763    3.7782 C   0  0  0  0  0  0  0  0  0  0  0  0
    0.8785   -1.0588    4.7683 C   0  0  0  0  0  0  0  0  0  0  0  0
    0.4272   -1.1588    5.7787 H   0  0  0  0  0  0  0  0  0  0  0  0
    2.0317   -1.7639    4.4634 C   0  0  0  0  0  0  0  0  0  0  0  0
    2.5556   -1.7197    3.2027 C   0  0  0  0  0  0  0  0  0  0  0  0
    1.9273   -0.9945    2.2261 C   0  0  0  0  0  0  0  0  0  0  0  0
    2.6523   -0.9396    0.6008 S   0  0  0  0  0  0  0  0  0  0  0  0
    2.3488    0.3472    0.0059 O   0  0  0  0  0  0  0  0  0  0  0  0
    4.0158   -1.2958    0.6660 O   0  0  0  0  0  0  0  0  0  0  0  0
    1.7454   -2.2597   -0.2653 C   0  0  0  0  0  0  0  0  0  0  0  0
    1.2553   -1.7735   -1.6422 C   0  0  0  0  0  0  0  0  0  0  0  0
    2.2592   -1.0667   -2.2625 O   0  0  0  0  0  0  0  0  0  0  0  0
    0.8389   -2.9745   -2.5306 C   0  0  0  0  0  0  0  0  0  0  0  0
    0.0245   -0.9059   -1.3890 C   0  0  0  0  0  0  0  0  0  0  0  0
   -1.0688   -1.4642   -1.1487 O   0  0  0  0  0  0  0  0  0  0  0  0
    0.2164    0.3832   -1.4281 N   0  0  0  0  0  0  0  0  0  0  0  0
   -0.7489    1.3978   -1.4127 C   0  0  0  0  0  0  0  0  0  0  0  0
   -2.0537    1.1062   -1.1935 C   0  0  0  0  0  0  0  0  0  0  0  0
   -0.3371    2.7218   -1.6687 C   0  0  0  0  0  0  0  0  0  0  0  0
   -1.3132    3.6945   -1.6476 C   0  0  0  0  0  0  0  0  0  0  0  0
   -2.6787    3.3981   -1.3988 C   0  0  0  0  0  0  0  0  0  0  0  0
   -3.5706    4.3775   -1.3899 O   0  0  0  0  0  0  0  0  0  0  0  0
   -3.1380    5.1328   -1.6979 H   0  0  0  0  0  0  0  0  0  0  0  0
   -3.0071    2.0422   -1.1768 C   0  0  0  0  0  0  0  0  0  0  0  0
   -4.4339    1.7200   -0.9571 C   0  0  0  0  0  0  0  0  0  0  0  0
   -4.8146    2.2124   -0.0334 H   0  0  0  0  0  0  0  0  0  0  0  0
   -5.0666    2.1562   -1.7581 H   0  0  0  0  0  0  0  0  0  0  0  0
   -4.6169    0.6365   -0.8886 H   0  0  0  0  0  0  0  0  0  0  0  0
    0.3973    0.4263    1.7539 H   0  0  0  0  0  0  0  0  0  0  0  0
   -0.6274    0.2981    3.9964 H   0  0  0  0  0  0  0  0  0  0  0  0
    2.5250   -2.3874    5.2432 H   0  0  0  0  0  0  0  0  0  0  0  0
    3.4920   -2.2364    2.9738 H   0  0  0  0  0  0  0  0  0  0  0  0
    0.8897   -2.4664    0.3951 H   0  0  0  0  0  0  0  0  0  0  0  0
    2.3508   -3.0967   -0.3812 H   0  0  0  0  0  0  0  0  0  0  0  0
    2.8988   -0.6422   -1.6814 H   0  0  0  0  0  0  0  0  0  0  0  0
    0.1385   -2.6554   -3.3426 H   0  0  0  0  0  0  0  0  0  0  0  0
    0.3293   -3.7716   -1.9565 H   0  0  0  0  0  0  0  0  0  0  0  0
    1.7417   -3.4205   -2.9668 H   0  0  0  0  0  0  0  0  0  0  0  0
    1.1344    0.7356   -1.3971 H   0  0  0  0  0  0  0  0  0  0  0  0
   -2.3463    0.0556   -1.0178 H   0  0  0  0  0  0  0  0  0  0  0  0
    0.6701    2.9740   -1.8688 H   0  0  0  0  0  0  0  0  0  0  0  0
   -1.0432    4.7531   -1.8652 H   0  0  0  0  0  0  0  0  0  0  0  0
  1  2  2  0
  1  7  1  0
  1 30  1  0
  2  3  1  0
  2 31  1  0
  3  4  1  0
  3  5  2  0
  5  6  1  0
  5 32  1  0
  6  7  2  0
  6 33  1  0
  7  8  1  0
  8  9  2  0
  8 10  2  0
  8 11  1  0
 11 12  1  0
 11 34  1  0
 11 35  1  0
 12 13  1  0
 12 14  1  0
 12 15  1  0
 13 36  1  0
 14 37  1  0
 14 38  1  0
 14 39  1  0
 15 16  2  0
 15 17  1  0
 17 18  1  0
 17 40  1  0
 18 19  2  0
 18 20  1  0
 19 25  1  0
 19 41  1  0
 20 21  2  0
 20 42  1  0
 21 22  1  0
 21 43  1  0
 22 23  1  0
 22 25  2  0
 23 24  1  0
 25 26  1  0
 26 27  1  0
 26 28  1  0
 26 29  1  0
M  END
>  <template_idx>  (5) 
1z95_ligand

>  <smiles>  (5) 
Cc1cc(NC(=O)C(C)(O)CS(=O)(=O)c2ccccc2)ccc1O

>  <qed>  (5) 
0.7150178833109528

$$$$
sample4
     RDKit          3D

 43 44  0  0  0  0  0  0  0  0999 V2000
    0.5945   -0.4895    2.5251 C   0  0  0  0  0  0  0  0  0  0  0  0
    0.2322   -0.4012    3.8450 C   0  0  0  0  0  0  0  0  0  0  0  0
    1.1219   -0.8563    4.8229 C   0  0  0  0  0  0  0  0  0  0  0  0
    0.8026   -0.9145    5.8681 H   0  0  0  0  0  0  0  0  0  0  0  0
    2.3735   -1.3190    4.4534 C   0  0  0  0  0  0  0  0  0  0  0  0
    2.7373   -1.3478    3.1205 C   0  0  0  0  0  0  0  0  0  0  0  0
    1.8399   -0.9511    2.1300 C   0  0  0  0  0  0  0  0  0  0  0  0
    2.2436   -0.9727    0.7185 C   0  0  0  0  0  0  0  0  0  0  0  0
    1.8716   -0.0112    0.2796 H   0  0  0  0  0  0  0  0  0  0  0  0
    3.3332   -0.9689    0.6115 H   0  0  0  0  0  0  0  0  0  0  0  0
    1.6694   -2.1714   -0.0192 C   0  0  0  0  0  0  0  0  0  0  0  0
    1.2316   -1.8051   -1.4203 C   0  0  0  0  0  0  0  0  0  0  0  0
    2.2796   -1.0873   -2.0170 C   0  0  0  0  0  0  0  0  0  0  0  0
    0.8970   -3.0221   -2.3188 C   0  0  0  0  0  0  0  0  0  0  0  0
    0.0076   -0.9329   -1.3291 C   0  0  0  0  0  0  0  0  0  0  0  0
   -1.0387   -1.3588   -0.8715 O   0  0  0  0  0  0  0  0  0  0  0  0
    0.2336    0.2882   -1.8103 N   0  0  0  0  0  0  0  0  0  0  0  0
   -0.7213    1.2777   -1.7263 C   0  0  0  0  0  0  0  0  0  0  0  0
   -2.0163    1.0020   -1.4337 C   0  0  0  0  0  0  0  0  0  0  0  0
   -0.2863    2.5616   -1.9581 C   0  0  0  0  0  0  0  0  0  0  0  0
   -1.1731    3.5890   -1.8055 C   0  0  0  0  0  0  0  0  0  0  0  0
   -2.5257    3.3159   -1.4115 C   0  0  0  0  0  0  0  0  0  0  0  0
   -3.3657    4.3435   -1.2442 C   0  0  0  0  0  0  0  0  0  0  0  0
   -4.0162    5.1958   -1.1709 N   0  0  0  0  0  0  0  0  0  0  0  0
   -2.9429    1.9887   -1.2337 C   0  0  0  0  0  0  0  0  0  0  0  0
   -4.3271    1.6795   -0.8437 C   0  0  0  0  0  0  0  0  0  0  0  0
   -4.6075    2.2825    0.0652 H   0  0  0  0  0  0  0  0  0  0  0  0
   -5.0089    1.9730   -1.6319 H   0  0  0  0  0  0  0  0  0  0  0  0
   -4.4484    0.6110   -0.6604 H   0  0  0  0  0  0  0  0  0  0  0  0
   -0.1260   -0.1573    1.7769 H   0  0  0  0  0  0  0  0  0  0  0  0
   -0.7403   -0.0174    4.1269 H   0  0  0  0  0  0  0  0  0  0  0  0
    3.0725   -1.6744    5.2164 H   0  0  0  0  0  0  0  0  0  0  0  0
    3.7147   -1.7148    2.8333 H   0  0  0  0  0  0  0  0  0  0  0  0
    0.7655   -2.5098    0.5043 H   0  0  0  0  0  0  0  0  0  0  0  0
    2.3773   -2.9827   -0.1069 H   0  0  0  0  0  0  0  0  0  0  0  0
    2.8864   -0.4885   -2.5445 O   0  0  0  0  0  0  0  0  0  0  0  0
    0.2650   -2.6765   -3.1706 H   0  0  0  0  0  0  0  0  0  0  0  0
    0.3428   -3.7700   -1.7438 H   0  0  0  0  0  0  0  0  0  0  0  0
    1.8369   -3.4602   -2.6932 H   0  0  0  0  0  0  0  0  0  0  0  0
    1.1026    0.5955   -2.1971 H   0  0  0  0  0  0  0  0  0  0  0  0
   -2.3767   -0.0295   -1.3973 H   0  0  0  0  0  0  0  0  0  0  0  0
    0.7411    2.7659   -2.2499 H   0  0  0  0  0  0  0  0  0  0  0  0
   -0.8529    4.6212   -1.8883 H   0  0  0  0  0  0  0  0  0  0  0  0
  1  2  2  0
  1  7  1  0
  1 30  1  0
  2  3  1  0
  2 31  1  0
  3  4  1  0
  3  5  2  0
  5  6  1  0
  5 32  1  0
  6  7  2  0
  6 33  1  0
  7  8  1  0
  8  9  1  0
  8 10  1  0
  8 11  1  0
 11 12  1  0
 11 34  1  0
 11 35  1  0
 12 13  1  0
 12 14  1  0
 12 15  1  0
 13 36  2  0
 14 37  1  0
 14 38  1  0
 14 39  1  0
 15 16  2  0
 15 17  1  0
 17 18  1  0
 17 40  1  0
 18 19  2  0
 18 20  1  0
 19 25  1  0
 19 41  1  0
 20 21  2  0
 20 42  1  0
 21 22  1  0
 21 43  1  0
 22 23  1  0
 22 25  2  0
 23 24  3  0
 25 26  1  0
 26 27  1  0
 26 28  1  0
 26 29  1  0
M  END
>  <template_idx>  (6) 
1z95_ligand

>  <smiles>  (6) 
Cc1cc(NC(=O)C(C)(C=O)CCc2ccccc2)ccc1C#N

>  <qed>  (6) 
0.6522658765887094

$$$$
sample5
     RDKit          3D

 43 44  0  0  0  0  0  0  0  0999 V2000
    0.7321   -0.2897    2.5620 C   0  0  0  0  0  0  0  0  0  0  0  0
    0.3186   -0.3090    3.8958 C   0  0  0  0  0  0  0  0  0  0  0  0
    1.0711   -1.0527    4.8158 C   0  0  0  0  0  0  0  0  0  0  0  0
    0.7568   -1.1252    5.8709 H   0  0  0  0  0  0  0  0  0  0  0  0
    2.1948   -1.7460    4.3624 C   0  0  0  0  0  0  0  0  0  0  0  0
    2.5800   -1.6984    3.0513 C   0  0  0  0  0  0  0  0  0  0  0  0
    1.8489   -0.9810    2.1290 C   0  0  0  0  0  0  0  0  0  0  0  0
    2.2917   -0.9572    0.7070 C   0  0  0  0  0  0  0  0  0  0  0  0
    1.9184   -0.0088    0.3015 H   0  0  0  0  0  0  0  0  0  0  0  0
    3.3795   -0.9193    0.6903 H   0  0  0  0  0  0  0  0  0  0  0  0
    1.8339   -2.1283   -0.1653 C   0  0  0  0  0  0  0  0  0  0  0  0
    1.3096   -1.6943   -1.5359 C   0  0  0  0  0  0  0  0  0  0  0  0
    3.0066   -1.5987   -2.4424 H   0  0  0  0  0  0  0  0  0  0  0  0
    0.9348   -2.8911   -2.4745 C   0  0  0  0  0  0  0  0  0  0  0  0
    0.0663   -0.8726   -1.2887 C   0  0  0  0  0  0  0  0  0  0  0  0
   -0.9568   -1.4260   -0.8794 O   0  0  0  0  0  0  0  0  0  0  0  0
    0.2084    0.4460   -1.5416 N   0  0  0  0  0  0  0  0  0  0  0  0
   -0.7714    1.4267   -1.5280 C   0  0  0  0  0  0  0  0  0  0  0  0
   -2.0231    1.1264   -1.1222 C   0  0  0  0  0  0  0  0  0  0  0  0
   -0.4287    2.7308   -1.9415 C   0  0  0  0  0  0  0  0  0  0  0  0
   -1.4256    3.6870   -1.8940 C   0  0  0  0  0  0  0  0  0  0  0  0
   -2.7423    3.3891   -1.4522 C   0  0  0  0  0  0  0  0  0  0  0  0
   -3.6470    4.3408   -1.4208 O   0  0  0  0  0  0  0  0  0  0  0  0
   -3.2509    5.1153   -1.7407 H   0  0  0  0  0  0  0  0  0  0  0  0
   -3.0052    2.0676   -1.0686 C   0  0  0  0  0  0  0  0  0  0  0  0
   -4.3978    1.7446   -0.6856 C   0  0  0  0  0  0  0  0  0  0  0  0
   -4.7187    2.4206    0.1246 H   0  0  0  0  0  0  0  0  0  0  0  0
   -5.1337    1.9606   -1.5285 H   0  0  0  0  0  0  0  0  0  0  0  0
   -4.5082    0.7132   -0.4163 H   0  0  0  0  0  0  0  0  0  0  0  0
    0.1334    0.2955    1.8708 H   0  0  0  0  0  0  0  0  0  0  0  0
   -0.5588    0.2469    4.2434 H   0  0  0  0  0  0  0  0  0  0  0  0
    2.8042   -2.3406    5.1037 H   0  0  0  0  0  0  0  0  0  0  0  0
    3.5083   -2.1881    2.7802 H   0  0  0  0  0  0  0  0  0  0  0  0
    0.9968   -2.6373    0.3518 H   0  0  0  0  0  0  0  0  0  0  0  0
    2.5993   -2.8710   -0.3250 H   0  0  0  0  0  0  0  0  0  0  0  0
    2.3448   -0.9850   -2.1910 O   0  0  0  0  0  0  0  0  0  0  0  0
    0.6427   -2.5546   -3.4871 H   0  0  0  0  0  0  0  0  0  0  0  0
    0.1363   -3.4284   -2.0401 H   0  0  0  0  0  0  0  0  0  0  0  0
    1.7818   -3.5617   -2.5908 H   0  0  0  0  0  0  0  0  0  0  0  0
    1.1160    0.7484   -1.7988 H   0  0  0  0  0  0  0  0  0  0  0  0
   -2.2797    0.0860   -0.8340 H   0  0  0  0  0  0  0  0  0  0  0  0
    0.5324    3.0054   -2.2751 H   0  0  0  0  0  0  0  0  0  0  0  0
   -1.1998    4.7140   -2.1924 H   0  0  0  0  0  0  0  0  0  0  0  0
  1  2  2  0
  1  7  1  0
  1 30  1  0
  2  3  1  0
  2 31  1  0
  3  4  1  0
  3  5  2  0
  5  6  1  0
  5 32  1  0
  6  7  2  0
  6 33  1  0
  7  8  1  0
  8  9  1  0
  8 10  1  0
  8 11  1  0
 11 12  1  0
 11 34  1  0
 11 35  1  0
 12 14  1  0
 12 15  1  0
 12 36  1  0
 13 36  1  0
 14 37  1  0
 14 38  1  0
 14 39  1  0
 15 16  2  0
 15 17  1  0
 17 18  1  0
 17 40  1  0
 18 19  2  0
 18 20  1  0
 19 25  1  0
 19 41  1  0
 20 21  2  0
 20 42  1  0
 21 22  1  0
 21 43  1  0
 22 23  1  0
 22 25  2  0
 23 24  1  0
 25 26  1  0
 26 27  1  0
 26 28  1  0
 26 29  1  0
M  END
>  <template_idx>  (7) 
1z95_ligand

>  <smiles>  (7) 
Cc1cc(NC(=O)C(C)(O)CCc2ccccc2)ccc1O

>  <qed>  (7) 
0.7432892797129284

$$$$
sample6
     RDKit          3D

 43 44  0  0  0  0  0  0  0  0999 V2000
    0.7051   -0.2372    2.4115 C   0  0  0  0  0  0  0  0  0  0  0  0
    0.2706   -0.0316    3.7182 C   0  0  0  0  0  0  0  0  0  0  0  0
    1.0058   -0.5823    4.7544 C   0  0  0  0  0  0  0  0  0  0  0  0
    0.6715   -0.4394    5.8149 H   0  0  0  0  0  0  0  0  0  0  0  0
    2.1563   -1.2995    4.4863 C   0  0  0  0  0  0  0  0  0  0  0  0
    2.5893   -1.4451    3.1657 C   0  0  0  0  0  0  0  0  0  0  0  0
    1.8295   -0.9684    2.1610 C   0  0  0  0  0  0  0  0  0  0  0  0
    2.4199   -1.0894    0.4871 S   0  0  0  0  0  0  0  0  0  0  0  0
    2.0689    0.1309   -0.1865 O   0  0  0  0  0  0  0  0  0  0  0  0
    3.7926   -1.4798    0.4652 O   0  0  0  0  0  0  0  0  0  0  0  0
    1.4218   -2.4884   -0.0430 C   0  0  0  0  0  0  0  0  0  0  0  0
    0.7681   -2.2896   -1.3856 C   0  0  0  0  0  0  0  0  0  0  0  0
    2.4149   -0.8199   -2.6168 O   0  0  0  0  0  0  0  0  0  0  0  0
    1.6375   -2.0132   -2.5688 C   0  0  0  0  0  0  0  0  0  0  0  0
   -0.3385   -1.2923   -1.2150 C   0  0  0  0  0  0  0  0  0  0  0  0
   -1.3710   -1.6926   -0.6590 O   0  0  0  0  0  0  0  0  0  0  0  0
   -0.0667   -0.0948   -1.6358 N   0  0  0  0  0  0  0  0  0  0  0  0
   -0.8759    1.0031   -1.5419 C   0  0  0  0  0  0  0  0  0  0  0  0
   -2.1608    0.8833   -1.1617 C   0  0  0  0  0  0  0  0  0  0  0  0
   -0.3503    2.2428   -1.8953 C   0  0  0  0  0  0  0  0  0  0  0  0
   -1.2036    3.3382   -1.8392 C   0  0  0  0  0  0  0  0  0  0  0  0
   -2.5647    3.2454   -1.4553 C   0  0  0  0  0  0  0  0  0  0  0  0
   -3.3244    4.3177   -1.4316 O   0  0  0  0  0  0  0  0  0  0  0  0
   -2.8252    5.0213   -1.5669 H   0  0  0  0  0  0  0  0  0  0  0  0
   -3.0166    1.9456   -1.1130 C   0  0  0  0  0  0  0  0  0  0  0  0
   -4.4241    1.7985   -0.7184 C   0  0  0  0  0  0  0  0  0  0  0  0
   -4.5949    2.2622    0.2499 H   0  0  0  0  0  0  0  0  0  0  0  0
   -5.0606    2.3436   -1.4454 H   0  0  0  0  0  0  0  0  0  0  0  0
   -4.6969    0.7544   -0.6375 H   0  0  0  0  0  0  0  0  0  0  0  0
    0.0938    0.2404    1.4478 H   0  0  0  0  0  0  0  0  0  0  0  0
   -0.6588    0.5087    3.9020 H   0  0  0  0  0  0  0  0  0  0  0  0
    2.7438   -1.7493    5.3178 H   0  0  0  0  0  0  0  0  0  0  0  0
    3.4745   -2.0353    2.9485 H   0  0  0  0  0  0  0  0  0  0  0  0
    0.5861   -2.5607    0.6836 H   0  0  0  0  0  0  0  0  0  0  0  0
    2.0500   -3.3365   -0.0338 H   0  0  0  0  0  0  0  0  0  0  0  0
    3.0467   -0.7201   -1.9556 H   0  0  0  0  0  0  0  0  0  0  0  0
    0.9857   -1.9939   -3.4792 H   0  0  0  0  0  0  0  0  0  0  0  0
    0.2755   -3.3163   -1.6618 H   0  0  0  0  0  0  0  0  0  0  0  0
    2.3838   -2.8523   -2.5609 H   0  0  0  0  0  0  0  0  0  0  0  0
    0.8769    0.1823   -1.9229 H   0  0  0  0  0  0  0  0  0  0  0  0
   -2.5453   -0.1009   -0.8661 H   0  0  0  0  0  0  0  0  0  0  0  0
    0.6585    2.3612   -2.2260 H   0  0  0  0  0  0  0  0  0  0  0  0
   -0.8489    4.3492   -2.1907 H   0  0  0  0  0  0  0  0  0  0  0  0
  1  2  2  0
  1  7  1  0
  1 30  1  0
  2  3  1  0
  2 31  1  0
  3  4  1  0
  3  5  2  0
  5  6  1  0
  5 32  1  0
  6  7  2  0
  6 33  1  0
  7  8  1  0
  8  9  2  0
  8 10  2  0
  8 11  1  0
 11 12  1  0
 11 34  1  0
 11 35  1  0
 12 14  1  0
 12 15  1  0
 12 38  1  0
 13 14  1  0
 13 36  1  0
 14 37  1  0
 14 39  1  0
 15 16  2  0
 15 17  1  0
 17 18  1  0
 17 40  1  0
 18 19  2  0
 18 20  1  0
 19 25  1  0
 19 41  1  0
 20 21  2  0
 20 42  1  0
 21 22  1  0
 21 43  1  0
 22 23  1  0
 22 25  2  0
 23 24  1  0
 25 26  1  0
 26 27  1  0
 26 28  1  0
 26 29  1  0
M  END
>  <template_idx>  (8) 
1z95_ligand

>  <smiles>  (8) 
Cc1cc(NC(=O)C(CO)CS(=O)(=O)c2ccccc2)ccc1O

>  <qed>  (8) 
0.6890885989977324

$$$$
sample7
     RDKit          3D

 43 45  0  0  0  0  0  0  0  0999 V2000
    0.6264   -0.7693    2.3258 C   0  0  0  0  0  0  0  0  0  0  0  0
    0.1147   -0.5664    3.5849 C   0  0  0  0  0  0  0  0  0  0  0  0
    0.8641   -0.9222    4.7112 C   0  0  0  0  0  0  0  0  0  0  0  0
    0.4388   -0.8251    5.7272 H   0  0  0  0  0  0  0  0  0  0  0  0
    2.1321   -1.4730    4.5333 C   0  0  0  0  0  0  0  0  0  0  0  0
    2.6491   -1.6086    3.2686 C   0  0  0  0  0  0  0  0  0  0  0  0
    1.8564   -1.2843    2.1579 C   0  0  0  0  0  0  0  0  0  0  0  0
    2.4631   -1.3978    0.8351 C   0  0  0  0  0  0  0  0  0  0  0  0
    3.0551   -0.5924   -1.4624 H   0  0  0  0  0  0  0  0  0  0  0  0
    3.4707   -0.8343    0.5741 O   0  0  0  0  0  0  0  0  0  0  0  0
    1.8164   -2.3247   -0.1240 C   0  0  0  0  0  0  0  0  0  0  0  0
    1.1996   -1.6740   -1.3302 C   0  0  0  0  0  0  0  0  0  0  0  0
    2.2840   -0.8205   -3.0777 H   0  0  0  0  0  0  0  0  0  0  0  0
    0.7014   -2.7518   -2.3191 C   0  0  0  0  0  0  0  0  0  0  0  0
    0.0630   -0.8561   -0.8682 N   0  0  0  0  0  0  0  0  0  0  0  0
   -0.5541   -1.2080   -0.1938 H   0  0  0  0  0  0  0  0  0  0  0  0
    0.3005    0.4168   -1.3703 C   0  0  0  0  0  0  0  0  0  0  0  0
   -0.6792    1.4287   -1.3853 C   0  0  0  0  0  0  0  0  0  0  0  0
   -1.9433    1.1369   -0.9848 C   0  0  0  0  0  0  0  0  0  0  0  0
   -0.3431    2.7114   -1.8177 C   0  0  0  0  0  0  0  0  0  0  0  0
   -1.3365    3.6850   -1.8492 C   0  0  0  0  0  0  0  0  0  0  0  0
   -2.6710    3.4025   -1.4397 C   0  0  0  0  0  0  0  0  0  0  0  0
   -3.5505    4.3676   -1.4749 O   0  0  0  0  0  0  0  0  0  0  0  0
   -3.1145    5.1535   -1.6332 H   0  0  0  0  0  0  0  0  0  0  0  0
   -2.9703    2.0939   -1.0181 C   0  0  0  0  0  0  0  0  0  0  0  0
   -4.3874    1.8149   -0.6485 C   0  0  0  0  0  0  0  0  0  0  0  0
   -4.7198    2.4742    0.1903 H   0  0  0  0  0  0  0  0  0  0  0  0
   -5.0358    2.1265   -1.4756 H   0  0  0  0  0  0  0  0  0  0  0  0
   -4.5542    0.7724   -0.4123 H   0  0  0  0  0  0  0  0  0  0  0  0
    0.0224   -0.4703    1.4396 H   0  0  0  0  0  0  0  0  0  0  0  0
   -0.8888   -0.1544    3.6999 H   0  0  0  0  0  0  0  0  0  0  0  0
    2.7235   -1.8239    5.4318 H   0  0  0  0  0  0  0  0  0  0  0  0
    3.6526   -2.0325    3.1322 H   0  0  0  0  0  0  0  0  0  0  0  0
    1.0354   -2.9318    0.4141 H   0  0  0  0  0  0  0  0  0  0  0  0
    2.5621   -3.0460   -0.5284 H   0  0  0  0  0  0  0  0  0  0  0  0
    2.1000   -0.6610   -2.0186 C   0  0  0  0  0  0  0  0  0  0  0  0
    0.2903   -2.2331   -3.1369 H   0  0  0  0  0  0  0  0  0  0  0  0
   -0.0293   -3.3951   -1.8357 H   0  0  0  0  0  0  0  0  0  0  0  0
    1.5527   -3.3542   -2.7256 H   0  0  0  0  0  0  0  0  0  0  0  0
    1.4701    0.6460   -1.8847 N   0  0  0  0  0  0  0  0  0  0  0  0
   -2.1883    0.1118   -0.6400 H   0  0  0  0  0  0  0  0  0  0  0  0
    0.6431    2.9783   -2.1473 H   0  0  0  0  0  0  0  0  0  0  0  0
   -1.1215    4.6903   -2.2243 H   0  0  0  0  0  0  0  0  0  0  0  0
  1  2  2  0
  1  7  1  0
  1 30  1  0
  2  3  1  0
  2 31  1  0
  3  4  1  0
  3  5  2  0
  5  6  1  0
  5 32  1  0
  6  7  2  0
  6 33  1  0
  7  8  1  0
  8 10  2  0
  8 11  1  0
  9 36  1  0
 11 12  1  0
 11 34  1  0
 11 35  1  0
 12 14  1  0
 12 15  1  0
 12 36  1  0
 13 36  1  0
 14 37  1  0
 14 38  1  0
 14 39  1  0
 15 16  1  0
 15 17  1  0
 17 18  1  0
 17 40  2  0
 18 19  2  0
 18 20  1  0
 19 25  1  0
 19 41  1  0
 20 21  2  0
 20 42  1  0
 21 22  1  0
 21 43  1  0
 22 23  1  0
 22 25  2  0
 23 24  1  0
 25 26  1  0
 26 27  1  0
 26 28  1  0
 26 29  1  0
 36 40  1  0
M  END
>  <template_idx>  (9) 
1z95_ligand

>  <smiles>  (9) 
Cc1cc(C2=NCC(C)(CC(=O)c3ccccc3)N2)ccc1O

>  <qed>  (9) 
0.8533092083344767

$$$$
sample8
     RDKit          3D

 43 44  0  0  0  0  0  0  0  0999 V2000
    0.7068   -0.4739    2.4521 C   0  0  0  0  0  0  0  0  0  0  0  0
    0.1449   -0.3997    3.7122 C   0  0  0  0  0  0  0  0  0  0  0  0
    0.7730   -1.0353    4.7860 C   0  0  0  0  0  0  0  0  0  0  0  0
    0.3424   -0.9925    5.8146 H   0  0  0  0  0  0  0  0  0  0  0  0
    1.9526   -1.7064    4.5695 C   0  0  0  0  0  0  0  0  0  0  0  0
    2.4890   -1.7593    3.3012 C   0  0  0  0  0  0  0  0  0  0  0  0
    1.8372   -1.1713    2.2443 C   0  0  0  0  0  0  0  0  0  0  0  0
    2.6280   -1.1619    0.7132 S   0  0  0  0  0  0  0  0  0  0  0  0
    2.3723    0.1670    0.1464 O   0  0  0  0  0  0  0  0  0  0  0  0
    3.9781   -1.5298    0.8618 O   0  0  0  0  0  0  0  0  0  0  0  0
    1.7179   -2.4224   -0.1854 C   0  0  0  0  0  0  0  0  0  0  0  0
    1.1516   -1.8321   -1.4864 C   0  0  0  0  0  0  0  0  0  0  0  0
    2.1863   -1.0176   -2.2258 C   0  0  0  0  0  0  0  0  0  0  0  0
    0.7490   -2.9869   -2.4626 C   0  0  0  0  0  0  0  0  0  0  0  0
   -0.0205   -0.9585   -1.1094 C   0  0  0  0  0  0  0  0  0  0  0  0
   -1.1157   -1.4885   -0.7531 O   0  0  0  0  0  0  0  0  0  0  0  0
    0.2119    0.3476   -1.1716 N   0  0  0  0  0  0  0  0  0  0  0  0
   -0.6491    1.3870   -1.3856 C   0  0  0  0  0  0  0  0  0  0  0  0
   -1.9571    1.2101   -1.1552 C   0  0  0  0  0  0  0  0  0  0  0  0
   -0.1589    2.6183   -1.8224 C   0  0  0  0  0  0  0  0  0  0  0  0
   -1.0369    3.6857   -1.9119 C   0  0  0  0  0  0  0  0  0  0  0  0
   -2.4116    3.5138   -1.5760 C   0  0  0  0  0  0  0  0  0  0  0  0
   -3.2855    4.5940   -1.5615 C   0  0  0  0  0  0  0  0  0  0  0  0
   -3.9951    5.4166   -1.4542 N   0  0  0  0  0  0  0  0  0  0  0  0
   -2.8549    2.2316   -1.2442 C   0  0  0  0  0  0  0  0  0  0  0  0
   -4.3024    2.0095   -1.0252 C   0  0  0  0  0  0  0  0  0  0  0  0
   -4.8429    2.9466   -0.6415 H   0  0  0  0  0  0  0  0  0  0  0  0
   -4.7670    1.7778   -1.9834 H   0  0  0  0  0  0  0  0  0  0  0  0
   -4.4801    1.1415   -0.3999 H   0  0  0  0  0  0  0  0  0  0  0  0
    0.2398    0.0504    1.6065 H   0  0  0  0  0  0  0  0  0  0  0  0
   -0.7715    0.1725    3.8470 H   0  0  0  0  0  0  0  0  0  0  0  0
    2.4932   -2.1664    5.4291 H   0  0  0  0  0  0  0  0  0  0  0  0
    3.4360   -2.2609    3.1342 H   0  0  0  0  0  0  0  0  0  0  0  0
    0.8913   -2.7331    0.4450 H   0  0  0  0  0  0  0  0  0  0  0  0
    2.3728   -3.2256   -0.3869 H   0  0  0  0  0  0  0  0  0  0  0  0
    2.9606   -0.4437   -2.7909 N   0  0  0  0  0  0  0  0  0  0  0  0
    0.3762   -2.5563   -3.3862 H   0  0  0  0  0  0  0  0  0  0  0  0
    0.0082   -3.5969   -2.0151 H   0  0  0  0  0  0  0  0  0  0  0  0
    1.6159   -3.6063   -2.6923 H   0  0  0  0  0  0  0  0  0  0  0  0
    1.1560    0.6206   -1.0440 H   0  0  0  0  0  0  0  0  0  0  0  0
   -2.3190    0.1957   -0.8931 H   0  0  0  0  0  0  0  0  0  0  0  0
    0.8688    2.7688   -2.1027 H   0  0  0  0  0  0  0  0  0  0  0  0
   -0.6916    4.6704   -2.1966 H   0  0  0  0  0  0  0  0  0  0  0  0
  1  2  2  0
  1  7  1  0
  1 30  1  0
  2  3  1  0
  2 31  1  0
  3  4  1  0
  3  5  2  0
  5  6  1  0
  5 32  1  0
  6  7  2  0
  6 33  1  0
  7  8  1  0
  8  9  2  0
  8 10  2  0
  8 11  1  0
 11 12  1  0
 11 34  1  0
 11 35  1  0
 12 13  1  0
 12 14  1  0
 12 15  1  0
 13 36  3  0
 14 37  1  0
 14 38  1  0
 14 39  1  0
 15 16  2  0
 15 17  1  0
 17 18  1  0
 17 40  1  0
 18 19  2  0
 18 20  1  0
 19 25  1  0
 19 41  1  0
 20 21  2  0
 20 42  1  0
 21 22  1  0
 21 43  1  0
 22 23  1  0
 22 25  2  0
 23 24  3  0
 25 26  1  0
 26 27  1  0
 26 28  1  0
 26 29  1  0
M  END
>  <template_idx>  (10) 
1z95_ligand

>  <smiles>  (10) 
Cc1cc(NC(=O)C(C)(C#N)CS(=O)(=O)c2ccccc2)ccc1C#N

>  <qed>  (10) 
0.8733298490006983

$$$$
sample9
     RDKit          3D

 43 44  0  0  0  0  0  0  0  0999 V2000
    0.6900   -0.4337    2.3637 C   0  0  0  0  0  0  0  0  0  0  0  0
    0.1851   -0.3217    3.6421 C   0  0  0  0  0  0  0  0  0  0  0  0
    0.9192   -0.8333    4.7215 C   0  0  0  0  0  0  0  0  0  0  0  0
    0.5633   -0.7054    5.7598 H   0  0  0  0  0  0  0  0  0  0  0  0
    2.1479   -1.4415    4.4832 C   0  0  0  0  0  0  0  0  0  0  0  0
    2.6436   -1.4799    3.1831 C   0  0  0  0  0  0  0  0  0  0  0  0
    1.8813   -1.0207    2.1494 C   0  0  0  0  0  0  0  0  0  0  0  0
    2.6390   -1.0762    0.5512 S   0  0  0  0  0  0  0  0  0  0  0  0
    2.3630    0.1918   -0.1232 O   0  0  0  0  0  0  0  0  0  0  0  0
    4.0392   -1.3669    0.6701 O   0  0  0  0  0  0  0  0  0  0  0  0
    1.7909   -2.4280   -0.2543 C   0  0  0  0  0  0  0  0  0  0  0  0
    1.1110   -1.9046   -1.5152 C   0  0  0  0  0  0  0  0  0  0  0  0
    2.1180   -1.2260   -2.2571 O   0  0  0  0  0  0  0  0  0  0  0  0
    0.5421   -3.0321   -2.4027 C   0  0  0  0  0  0  0  0  0  0  0  0
    0.0214   -0.9737   -1.0714 C   0  0  0  0  0  0  0  0  0  0  0  0
   -0.9416   -1.3974   -0.3831 O   0  0  0  0  0  0  0  0  0  0  0  0
    0.2167    0.2672   -1.4590 N   0  0  0  0  0  0  0  0  0  0  0  0
   -0.6819    1.3042   -1.5472 C   0  0  0  0  0  0  0  0  0  0  0  0
   -1.9413    1.0880   -1.1686 C   0  0  0  0  0  0  0  0  0  0  0  0
   -0.2367    2.5537   -2.0128 C   0  0  0  0  0  0  0  0  0  0  0  0
   -1.1259    3.6014   -2.0039 C   0  0  0  0  0  0  0  0  0  0  0  0
   -2.4660    3.3850   -1.5359 C   0  0  0  0  0  0  0  0  0  0  0  0
   -3.3342    4.4290   -1.4452 C   0  0  0  0  0  0  0  0  0  0  0  0
   -4.0148    5.2595   -1.2968 N   0  0  0  0  0  0  0  0  0  0  0  0
   -2.8637    2.0972   -1.1553 C   0  0  0  0  0  0  0  0  0  0  0  0
   -4.2767    1.8777   -0.7431 C   0  0  0  0  0  0  0  0  0  0  0  0
   -4.4978    2.5228    0.1312 H   0  0  0  0  0  0  0  0  0  0  0  0
   -4.9657    2.1970   -1.5568 H   0  0  0  0  0  0  0  0  0  0  0  0
   -4.4469    0.8264   -0.4673 H   0  0  0  0  0  0  0  0  0  0  0  0
    0.0759   -0.0257    1.5077 H   0  0  0  0  0  0  0  0  0  0  0  0
   -0.7859    0.1555    3.8080 H   0  0  0  0  0  0  0  0  0  0  0  0
    2.7872   -1.7649    5.3363 H   0  0  0  0  0  0  0  0  0  0  0  0
    3.6747   -1.8034    3.0186 H   0  0  0  0  0  0  0  0  0  0  0  0
    1.0365   -2.7823    0.4417 H   0  0  0  0  0  0  0  0  0  0  0  0
    2.5033   -3.1832   -0.5224 H   0  0  0  0  0  0  0  0  0  0  0  0
    2.6443   -0.6331   -1.7392 H   0  0  0  0  0  0  0  0  0  0  0  0
    0.1126   -2.5736   -3.3072 H   0  0  0  0  0  0  0  0  0  0  0  0
   -0.2457   -3.5640   -1.8612 H   0  0  0  0  0  0  0  0  0  0  0  0
    1.3287   -3.7085   -2.6633 H   0  0  0  0  0  0  0  0  0  0  0  0
    1.1406    0.5767   -1.6242 H   0  0  0  0  0  0  0  0  0  0  0  0
   -2.2652    0.0670   -0.8850 H   0  0  0  0  0  0  0  0  0  0  0  0
    0.7655    2.6941   -2.3900 H   0  0  0  0  0  0  0  0  0  0  0  0
   -0.8513    4.5856   -2.3765 H   0  0  0  0  0  0  0  0  0  0  0  0
  1  2  2  0
  1  7  1  0
  1 30  1  0
  2  3  1  0
  2 31  1  0
  3  4  1  0
  3  5  2  0
  5  6  1  0
  5 32  1  0
  6  7  2  0
  6 33  1  0
  7  8  1  0
  8  9  2  0
  8 10  2  0
  8 11  1  0
 11 12  1  0
 11 34  1  0
 11 35  1  0
 12 13  1  0
 12 14  1  0
 12 15  1  0
 13 36  1  0
 14 37  1  0
 14 38  1  0
 14 39  1  0
 15 16  2  0
 15 17  1  0
 17 18  1  0
 17 40  1  0
 18 19  2  0
 18 20  1  0
 19 25  1  0
 19 41  1  0
 20 21  2  0
 20 42  1  0
 21 22  1  0
 21 43  1  0
 22 23  1  0
 22 25  2  0
 23 24  3  0
 25 26  1  0
 26 27  1  0
 26 28  1  0
 26 29  1  0
M  END
>  <template_idx>  (11) 
1z95_ligand

>  <smiles>  (11) 
Cc1cc(NC(=O)C(C)(O)CS(=O)(=O)c2ccccc2)ccc1C#N

>  <qed>  (11) 
0.8502432192329245

$$$$
