template1z95_ligand
     RDKit          3D

 43 44  0  0  0  0  0  0  0  0999 V2000
    0.7575   -0.4806    2.8409 C   0  0  0  0  0  0  0  0  0  0  0  0
    0.3205   -0.6406    4.1529 C   0  0  0  0  0  0  0  0  0  0  0  0
    1.1155   -1.3216    5.0699 C   0  0  0  0  0  0  0  0  0  0  0  0
    0.6995   -1.4816    6.3419 F   0  0  0  0  0  0  0  0  0  0  0  0
    2.3455   -1.8406    4.6779 C   0  0  0  0  0  0  0  0  0  0  0  0
    2.7825   -1.6786    3.3669 C   0  0  0  0  0  0  0  0  0  0  0  0
    1.9885   -0.9996    2.4489 C   0  0  0  0  0  0  0  0  0  0  0  0
    2.5335   -0.8246    0.7969 S   0  0  0  0  0  0  0  0  0  0  0  0
    2.0735    0.5024    0.2689 O   0  0  0  0  0  0  0  0  0  0  0  0
    4.0305   -0.8946    0.7529 O   0  0  0  0  0  0  0  0  0  0  0  0
    1.8295   -2.1806   -0.2121 C   0  0  0  0  0  0  0  0  0  0  0  0
    1.2535   -1.7446   -1.5621 C   0  0  0  0  0  0  0  0  0  0  0  0
    2.2385   -0.9886   -2.2711 O   0  0  0  0  0  0  0  0  0  0  0  0
    0.8485   -2.9686   -2.3861 C   0  0  0  0  0  0  0  0  0  0  0  0
    0.0215   -0.8606   -1.3511 C   0  0  0  0  0  0  0  0  0  0  0  0
   -0.9835   -1.3066   -0.7981 O   0  0  0  0  0  0  0  0  0  0  0  0
    0.1975    0.4094   -1.7081 N   0  0  0  0  0  0  0  0  0  0  0  0
   -0.7215    1.3744   -1.6561 C   0  0  0  0  0  0  0  0  0  0  0  0
   -2.0615    1.1404   -1.3551 C   0  0  0  0  0  0  0  0  0  0  0  0
   -0.3325    2.6554   -2.0321 C   0  0  0  0  0  0  0  0  0  0  0  0
   -1.2775    3.6744   -2.0911 C   0  0  0  0  0  0  0  0  0  0  0  0
   -2.6125    3.4254   -1.7861 C   0  0  0  0  0  0  0  0  0  0  0  0
   -3.4945    4.5514   -1.8501 C   0  0  0  0  0  0  0  0  0  0  0  0
   -4.1845    5.4544   -1.9111 N   0  0  0  0  0  0  0  0  0  0  0  0
   -3.0325    2.1424   -1.4191 C   0  0  0  0  0  0  0  0  0  0  0  0
   -4.4965    1.7834   -1.0991 C   0  0  0  0  0  0  0  0  0  0  0  0
   -4.7135    1.9244    0.2049 F   0  0  0  0  0  0  0  0  0  0  0  0
   -5.3975    2.5254   -1.7371 F   0  0  0  0  0  0  0  0  0  0  0  0
   -4.7875    0.5264   -1.4251 F   0  0  0  0  0  0  0  0  0  0  0  0
    0.1393    0.0481    2.1244 H   0  0  0  0  0  0  0  0  0  0  0  0
   -0.6371   -0.2356    4.4596 H   0  0  0  0  0  0  0  0  0  0  0  0
    2.9631   -2.3710    5.3937 H   0  0  0  0  0  0  0  0  0  0  0  0
    3.7413   -2.0814    3.0612 H   0  0  0  0  0  0  0  0  0  0  0  0
    1.0232   -2.6547    0.3668 H   0  0  0  0  0  0  0  0  0  0  0  0
    2.6260   -2.9153   -0.4013 H   0  0  0  0  0  0  0  0  0  0  0  0
    2.4747   -0.2221   -1.7620 H   0  0  0  0  0  0  0  0  0  0  0  0
    0.4370   -2.6405   -3.3520 H   0  0  0  0  0  0  0  0  0  0  0  0
    0.0865   -3.5431   -1.8391 H   0  0  0  0  0  0  0  0  0  0  0  0
    1.7308   -3.6021   -2.5597 H   0  0  0  0  0  0  0  0  0  0  0  0
    1.1033    0.6637   -2.0469 H   0  0  0  0  0  0  0  0  0  0  0  0
   -2.3623    0.1417   -1.0597 H   0  0  0  0  0  0  0  0  0  0  0  0
    0.7033    2.8591   -2.2783 H   0  0  0  0  0  0  0  0  0  0  0  0
   -0.9707    4.6738   -2.3779 H   0  0  0  0  0  0  0  0  0  0  0  0
  1  2  2  0
  1  7  1  0
  1 30  1  0
  2  3  1  0
  2 31  1  0
  3  4  1  0
  3  5  2  0
  5  6  1  0
  5 32  1  0
  6  7  2  0
  6 33  1  0
  7  8  1  0
  8  9  2  0
  8 10  2  0
  8 11  1  0
 11 12  1  0
 11 34  1  0
 11 35  1  0
 12 13  1  0
 12 14  1  0
 12 15  1  0
 13 36  1  0
 14 37  1  0
 14 38  1  0
 14 39  1  0
 15 16  2  0
 15 17  1  0
 17 18  1  0
 17 40  1  0
 18 19  2  0
 18 20  1  0
 19 25  1  0
 19 41  1  0
 20 21  2  0
 20 42  1  0
 21 22  1  0
 21 43  1  0
 22 23  1  0
 22 25  2  0
 23 24  3  0
 25 26  1  0
 26 27  1  0
 26 28  1  0
 26 29  1  0
M  END
>  <template_idx>  (1) 
1z95_ligand

>  <smiles>  (1) 
CC(O)(CS(=O)(=O)c1ccc(F)cc1)C(=O)Nc1ccc(C#N)c(C(F)(F)F)c1

$$$$
sample0
     RDKit          3D

 43 44  0  0  0  0  0  0  0  0999 V2000
    0.6776   -0.3037    2.3280 C   0  0  0  0  0  0  0  0  0  0  0  0
    0.1266   -0.3188    3.5994 C   0  0  0  0  0  0  0  0  0  0  0  0
    0.7890   -0.9705    4.6424 C   0  0  0  0  0  0  0  0  0  0  0  0
    0.3410   -1.0243    5.6474 H   0  0  0  0  0  0  0  0  0  0  0  0
    2.0144   -1.5821    4.3974 C   0  0  0  0  0  0  0  0  0  0  0  0
    2.5447   -1.5513    3.1311 C   0  0  0  0  0  0  0  0  0  0  0  0
    1.8590   -0.9608    2.1247 C   0  0  0  0  0  0  0  0  0  0  0  0
    2.6228   -0.9980    0.5563 S   0  0  0  0  0  0  0  0  0  0  0  0
    2.3531    0.2766   -0.1006 O   0  0  0  0  0  0  0  0  0  0  0  0
    4.0255   -1.3168    0.6555 O   0  0  0  0  0  0  0  0  0  0  0  0
    1.7107   -2.3327   -0.2018 C   0  0  0  0  0  0  0  0  0  0  0  0
    1.1727   -1.8050   -1.5358 C   0  0  0  0  0  0  0  0  0  0  0  0
    2.2566   -1.2453   -2.2430 O   0  0  0  0  0  0  0  0  0  0  0  0
    0.5458   -2.8706   -2.3856 C   0  0  0  0  0  0  0  0  0  0  0  0
    0.1543   -0.7692   -1.1693 C   0  0  0  0  0  0  0  0  0  0  0  0
   -0.7922   -1.0251   -0.4523 O   0  0  0  0  0  0  0  0  0  0  0  0
    0.3908    0.4010   -1.6489 N   0  0  0  0  0  0  0  0  0  0  0  0
   -0.5847    1.4068   -1.6728 C   0  0  0  0  0  0  0  0  0  0  0  0
   -1.9115    1.1009   -1.5130 C   0  0  0  0  0  0  0  0  0  0  0  0
   -0.1714    2.7249   -1.7964 C   0  0  0  0  0  0  0  0  0  0  0  0
   -1.0824    3.7238   -1.5663 C   0  0  0  0  0  0  0  0  0  0  0  0
   -2.4364    3.4202   -1.2281 C   0  0  0  0  0  0  0  0  0  0  0  0
   -3.2715    4.4021   -0.9357 O   0  0  0  0  0  0  0  0  0  0  0  0
   -4.0832    4.1466   -1.0495 H   0  0  0  0  0  0  0  0  0  0  0  0
   -2.8230    2.0749   -1.2209 C   0  0  0  0  0  0  0  0  0  0  0  0
   -4.2185    1.7257   -0.8307 C   0  0  0  0  0  0  0  0  0  0  0  0
   -4.5080    2.1890    0.1692 H   0  0  0  0  0  0  0  0  0  0  0  0
   -4.9333    2.1512   -1.5581 H   0  0  0  0  0  0  0  0  0  0  0  0
   -4.3391    0.6151   -0.8118 H   0  0  0  0  0  0  0  0  0  0  0  0
    0.1343    0.2032    1.5033 H   0  0  0  0  0  0  0  0  0  0  0  0
   -0.8284    0.1557    3.7822 H   0  0  0  0  0  0  0  0  0  0  0  0
    2.5482   -2.1059    5.2191 H   0  0  0  0  0  0  0  0  0  0  0  0
    3.5234   -1.9723    2.9307 H   0  0  0  0  0  0  0  0  0  0  0  0
    0.8814   -2.5630    0.4596 H   0  0  0  0  0  0  0  0  0  0  0  0
    2.3729   -3.1544   -0.3554 H   0  0  0  0  0  0  0  0  0  0  0  0
    2.9227   -0.7711   -1.7548 H   0  0  0  0  0  0  0  0  0  0  0  0
   -0.1662   -2.3167   -3.3693 F   0  0  0  0  0  0  0  0  0  0  0  0
   -0.3250   -3.6453   -1.7132 F   0  0  0  0  0  0  0  0  0  0  0  0
    1.4353   -3.6637   -2.9061 F   0  0  0  0  0  0  0  0  0  0  0  0
    1.3074    0.7325   -1.7915 H   0  0  0  0  0  0  0  0  0  0  0  0
   -2.2809    0.0906   -1.6357 H   0  0  0  0  0  0  0  0  0  0  0  0
    0.8357    2.9571   -2.1002 H   0  0  0  0  0  0  0  0  0  0  0  0
   -0.7905    4.7684   -1.5995 H   0  0  0  0  0  0  0  0  0  0  0  0
  1  2  2  0
  1  7  1  0
  1 30  1  0
  2  3  1  0
  2 31  1  0
  3  4  1  0
  3  5  2  0
  5  6  1  0
  5 32  1  0
  6  7  2  0
  6 33  1  0
  7  8  1  0
  8  9  2  0
  8 10  2  0
  8 11  1  0
 11 12  1  0
 11 34  1  0
 11 35  1  0
 12 13  1  0
 12 14  1  0
 12 15  1  0
 13 36  1  0
 14 37  1  0
 14 38  1  0
 14 39  1  0
 15 16  2  0
 15 17  1  0
 17 18  1  0
 17 40  1  0
 18 19  2  0
 18 20  1  0
 19 25  1  0
 19 41  1  0
 20 21  2  0
 20 42  1  0
 21 22  1  0
 21 43  1  0
 22 23  1  0
 22 25  2  0
 23 24  1  0
 25 26  1  0
 26 27  1  0
 26 28  1  0
 26 29  1  0
M  END
>  <template_idx>  (2) 
1z95_ligand

>  <smiles>  (2) 
Cc1cc(NC(=O)C(O)(CS(=O)(=O)c2ccccc2)C(F)(F)F)ccc1O

>  <qed>  (2) 
0.6655062271483273

$$$$
sample1
     RDKit          3D

 43 44  0  0  0  0  0  0  0  0999 V2000
    0.6798   -0.5652    2.4694 C   0  0  0  0  0  0  0  0  0  0  0  0
    0.1617   -0.6977    3.7472 C   0  0  0  0  0  0  0  0  0  0  0  0
    0.9282   -1.2896    4.7513 C   0  0  0  0  0  0  0  0  0  0  0  0
    0.5142   -1.4567    5.7655 H   0  0  0  0  0  0  0  0  0  0  0  0
    2.2262   -1.6711    4.4587 C   0  0  0  0  0  0  0  0  0  0  0  0
    2.7234   -1.5017    3.1855 C   0  0  0  0  0  0  0  0  0  0  0  0
    1.9475   -0.9932    2.1401 C   0  0  0  0  0  0  0  0  0  0  0  0
    2.4954   -0.8926    0.7559 C   0  0  0  0  0  0  0  0  0  0  0  0
    2.2040    0.1029    0.3830 H   0  0  0  0  0  0  0  0  0  0  0  0
    3.5869   -0.9500    0.8064 H   0  0  0  0  0  0  0  0  0  0  0  0
    1.9379   -1.9974   -0.1323 C   0  0  0  0  0  0  0  0  0  0  0  0
    1.3959   -1.5599   -1.4913 C   0  0  0  0  0  0  0  0  0  0  0  0
    2.3815   -0.7787   -2.1284 O   0  0  0  0  0  0  0  0  0  0  0  0
    1.0483   -2.7844   -2.4078 C   0  0  0  0  0  0  0  0  0  0  0  0
    0.1193   -0.8041   -1.2943 C   0  0  0  0  0  0  0  0  0  0  0  0
   -0.8764   -1.3447   -0.8292 O   0  0  0  0  0  0  0  0  0  0  0  0
    0.1626    0.4599   -1.7094 N   0  0  0  0  0  0  0  0  0  0  0  0
   -0.8470    1.4175   -1.6130 C   0  0  0  0  0  0  0  0  0  0  0  0
   -2.1261    1.0171   -1.4992 C   0  0  0  0  0  0  0  0  0  0  0  0
   -0.4727    2.7562   -1.6613 C   0  0  0  0  0  0  0  0  0  0  0  0
   -1.4713    3.6833   -1.5411 C   0  0  0  0  0  0  0  0  0  0  0  0
   -2.8378    3.3204   -1.3749 C   0  0  0  0  0  0  0  0  0  0  0  0
   -3.7433    4.2744   -1.2854 O   0  0  0  0  0  0  0  0  0  0  0  0
   -3.2954    5.1010   -1.3026 H   0  0  0  0  0  0  0  0  0  0  0  0
   -3.1361    1.9556   -1.3277 C   0  0  0  0  0  0  0  0  0  0  0  0
   -4.5314    1.5442   -1.1223 C   0  0  0  0  0  0  0  0  0  0  0  0
   -4.9086    2.0632   -0.2055 H   0  0  0  0  0  0  0  0  0  0  0  0
   -5.1572    1.9172   -1.9667 H   0  0  0  0  0  0  0  0  0  0  0  0
   -4.6618    0.4715   -1.0105 H   0  0  0  0  0  0  0  0  0  0  0  0
    0.0547   -0.0829    1.7366 H   0  0  0  0  0  0  0  0  0  0  0  0
   -0.8431   -0.3548    3.9640 H   0  0  0  0  0  0  0  0  0  0  0  0
    2.8448   -2.1400    5.2379 H   0  0  0  0  0  0  0  0  0  0  0  0
    3.7401   -1.7876    2.9722 H   0  0  0  0  0  0  0  0  0  0  0  0
    1.0859   -2.4353    0.3955 H   0  0  0  0  0  0  0  0  0  0  0  0
    2.6913   -2.7730   -0.3530 H   0  0  0  0  0  0  0  0  0  0  0  0
    3.2301   -0.5768   -1.5459 H   0  0  0  0  0  0  0  0  0  0  0  0
    0.3748   -2.4813   -3.2438 H   0  0  0  0  0  0  0  0  0  0  0  0
    0.5291   -3.5349   -1.8304 H   0  0  0  0  0  0  0  0  0  0  0  0
    1.9662   -3.2134   -2.8005 H   0  0  0  0  0  0  0  0  0  0  0  0
    0.9772    0.7932   -2.1156 H   0  0  0  0  0  0  0  0  0  0  0  0
   -2.4014   -0.0396   -1.5685 H   0  0  0  0  0  0  0  0  0  0  0  0
    0.5392    3.0749   -1.8083 H   0  0  0  0  0  0  0  0  0  0  0  0
   -1.2363    4.7542   -1.6004 H   0  0  0  0  0  0  0  0  0  0  0  0
  1  2  2  0
  1  7  1  0
  1 30  1  0
  2  3  1  0
  2 31  1  0
  3  4  1  0
  3  5  2  0
  5  6  1  0
  5 32  1  0
  6  7  2  0
  6 33  1  0
  7  8  1  0
  8  9  1  0
  8 10  1  0
  8 11  1  0
 11 12  1  0
 11 34  1  0
 11 35  1  0
 12 13  1  0
 12 14  1  0
 12 15  1  0
 13 36  1  0
 14 37  1  0
 14 38  1  0
 14 39  1  0
 15 16  2  0
 15 17  1  0
 17 18  1  0
 17 40  1  0
 18 19  2  0
 18 20  1  0
 19 25  1  0
 19 41  1  0
 20 21  2  0
 20 42  1  0
 21 22  1  0
 21 43  1  0
 22 23  1  0
 22 25  2  0
 23 24  1  0
 25 26  1  0
 26 27  1  0
 26 28  1  0
 26 29  1  0
M  END
>  <template_idx>  (3) 
1z95_ligand

>  <smiles>  (3) 
Cc1cc(NC(=O)C(C)(O)CCc2ccccc2)ccc1O

>  <qed>  (3) 
0.7432892797129284

$$$$
sample2
     RDKit          3D

 43 44  0  0  0  0  0  0  0  0999 V2000
    1.0361   -0.1034    2.3951 C   0  0  0  0  0  0  0  0  0  0  0  0
    0.4104   -0.0731    3.6165 C   0  0  0  0  0  0  0  0  0  0  0  0
    0.8478   -0.9257    4.6341 C   0  0  0  0  0  0  0  0  0  0  0  0
    0.3707   -0.8935    5.6355 H   0  0  0  0  0  0  0  0  0  0  0  0
    1.9014   -1.7934    4.3893 C   0  0  0  0  0  0  0  0  0  0  0  0
    2.4978   -1.8254    3.1704 C   0  0  0  0  0  0  0  0  0  0  0  0
    2.0134   -1.0154    2.1936 C   0  0  0  0  0  0  0  0  0  0  0  0
    2.7713   -1.1389    0.6211 S   0  0  0  0  0  0  0  0  0  0  0  0
    4.0814   -1.5927    0.6893 O   0  0  0  0  0  0  0  0  0  0  0  0
    2.6655    0.1625   -0.0900 O   0  0  0  0  0  0  0  0  0  0  0  0
    1.7065   -2.3557   -0.1712 C   0  0  0  0  0  0  0  0  0  0  0  0
    1.3057   -1.7715   -1.5426 C   0  0  0  0  0  0  0  0  0  0  0  0
    1.4692    2.1559   -1.3864 H   0  0  0  0  0  0  0  0  0  0  0  0
    1.1020   -2.9434   -2.5702 C   0  0  0  0  0  0  0  0  0  0  0  0
    0.0218   -0.9991   -1.3207 C   0  0  0  0  0  0  0  0  0  0  0  0
   -1.0522   -1.6014   -1.2036 O   0  0  0  0  0  0  0  0  0  0  0  0
    0.2267    0.2829   -1.1824 N   0  0  0  0  0  0  0  0  0  0  0  0
   -0.7779    1.2522   -1.3471 C   0  0  0  0  0  0  0  0  0  0  0  0
   -2.0671    0.9372   -1.1186 C   0  0  0  0  0  0  0  0  0  0  0  0
   -0.4016    2.5346   -1.7082 C   0  0  0  0  0  0  0  0  0  0  0  0
   -1.3701    3.5049   -1.8055 C   0  0  0  0  0  0  0  0  0  0  0  0
   -2.7286    3.2061   -1.5512 C   0  0  0  0  0  0  0  0  0  0  0  0
   -3.6110    4.1992   -1.5755 O   0  0  0  0  0  0  0  0  0  0  0  0
   -3.1309    4.9728   -1.6432 H   0  0  0  0  0  0  0  0  0  0  0  0
   -3.0626    1.8888   -1.2205 C   0  0  0  0  0  0  0  0  0  0  0  0
   -4.4797    1.5999   -0.8961 C   0  0  0  0  0  0  0  0  0  0  0  0
   -4.7398    2.0068    0.0575 H   0  0  0  0  0  0  0  0  0  0  0  0
   -5.1369    2.1320   -1.6254 H   0  0  0  0  0  0  0  0  0  0  0  0
   -4.6889    0.5388   -0.8797 H   0  0  0  0  0  0  0  0  0  0  0  0
    0.7316    0.5652    1.5610 H   0  0  0  0  0  0  0  0  0  0  0  0
   -0.4177    0.5996    3.7876 H   0  0  0  0  0  0  0  0  0  0  0  0
    2.2879   -2.4243    5.2171 H   0  0  0  0  0  0  0  0  0  0  0  0
    3.3688   -2.4556    2.9953 H   0  0  0  0  0  0  0  0  0  0  0  0
    0.8294   -2.4585    0.4906 H   0  0  0  0  0  0  0  0  0  0  0  0
    2.2505   -3.2324   -0.2918 H   0  0  0  0  0  0  0  0  0  0  0  0
    2.0661   -1.1030   -1.9040 H   0  0  0  0  0  0  0  0  0  0  0  0
    0.6756   -2.5768   -3.4824 H   0  0  0  0  0  0  0  0  0  0  0  0
    0.4163   -3.6939   -2.1471 H   0  0  0  0  0  0  0  0  0  0  0  0
    2.0493   -3.4135   -2.7537 H   0  0  0  0  0  0  0  0  0  0  0  0
    1.1369    0.5912   -1.0562 H   0  0  0  0  0  0  0  0  0  0  0  0
   -2.3836   -0.0706   -0.8847 H   0  0  0  0  0  0  0  0  0  0  0  0
    0.8713    2.8267   -2.0707 O   0  0  0  0  0  0  0  0  0  0  0  0
   -1.0625    4.5040   -2.0253 H   0  0  0  0  0  0  0  0  0  0  0  0
  1  2  2  0
  1  7  1  0
  1 30  1  0
  2  3  1  0
  2 31  1  0
  3  4  1  0
  3  5  2  0
  5  6  1  0
  5 32  1  0
  6  7  2  0
  6 33  1  0
  7  8  1  0
  8  9  2  0
  8 10  2  0
  8 11  1  0
 11 12  1  0
 11 34  1  0
 11 35  1  0
 12 14  1  0
 12 15  1  0
 12 36  1  0
 13 42  1  0
 14 37  1  0
 14 38  1  0
 14 39  1  0
 15 16  2  0
 15 17  1  0
 17 18  1  0
 17 40  1  0
 18 19  2  0
 18 20  1  0
 19 25  1  0
 19 41  1  0
 20 21  2  0
 20 42  1  0
 21 22  1  0
 21 43  1  0
 22 23  1  0
 22 25  2  0
 23 24  1  0
 25 26  1  0
 26 27  1  0
 26 28  1  0
 26 29  1  0
M  END
>  <template_idx>  (4) 
1z95_ligand

>  <smiles>  (4) 
Cc1cc(NC(=O)C(C)CS(=O)(=O)c2ccccc2)c(O)cc1O

>  <qed>  (4) 
0.5681260254999321

$$$$
sample3
     RDKit          3D

 43 44  0  0  0  0  0  0  0  0999 V2000
    0.7189   -0.1652    2.6465 C   0  0  0  0  0  0  0  0  0  0  0  0
    0.2976   -0.2145    3.9760 C   0  0  0  0  0  0  0  0  0  0  0  0
    0.9946   -1.0166    4.8581 C   0  0  0  0  0  0  0  0  0  0  0  0
    0.4096   -1.1677    6.6852 Br  0  0  0  0  0  0  0  0  0  0  0  0
    2.0957   -1.7447    4.4438 C   0  0  0  0  0  0  0  0  0  0  0  0
    2.4986   -1.6639    3.1308 C   0  0  0  0  0  0  0  0  0  0  0  0
    1.8111   -0.9017    2.2189 C   0  0  0  0  0  0  0  0  0  0  0  0
    2.2771   -0.8866    0.7957 C   0  0  0  0  0  0  0  0  0  0  0  0
    1.8507    0.0523    0.3387 H   0  0  0  0  0  0  0  0  0  0  0  0
    3.3787   -0.7906    0.7348 H   0  0  0  0  0  0  0  0  0  0  0  0
    1.8766   -2.1410    0.0178 C   0  0  0  0  0  0  0  0  0  0  0  0
    1.4167   -1.7453   -1.3847 C   0  0  0  0  0  0  0  0  0  0  0  0
    2.4111   -0.9380   -2.0046 N   0  0  0  0  0  0  0  0  0  0  0  0
    1.2001   -3.0076   -2.3040 C   0  0  0  0  0  0  0  0  0  0  0  0
    0.1114   -0.9786   -1.2826 C   0  0  0  0  0  0  0  0  0  0  0  0
   -0.9506   -1.5778   -0.9907 O   0  0  0  0  0  0  0  0  0  0  0  0
    0.2049    0.3275   -1.6031 N   0  0  0  0  0  0  0  0  0  0  0  0
   -0.7566    1.3298   -1.6027 C   0  0  0  0  0  0  0  0  0  0  0  0
   -2.0297    1.0410   -1.2717 C   0  0  0  0  0  0  0  0  0  0  0  0
   -0.3547    2.6265   -1.9375 C   0  0  0  0  0  0  0  0  0  0  0  0
   -1.3194    3.5849   -2.0378 C   0  0  0  0  0  0  0  0  0  0  0  0
   -2.6754    3.2727   -1.7340 C   0  0  0  0  0  0  0  0  0  0  0  0
   -3.6211    4.2816   -1.8442 C   0  0  0  0  0  0  0  0  0  0  0  0
   -4.2447    5.1312   -1.9304 N   0  0  0  0  0  0  0  0  0  0  0  0
   -3.0155    1.9935   -1.3287 C   0  0  0  0  0  0  0  0  0  0  0  0
   -4.3995    1.6646   -0.9427 C   0  0  0  0  0  0  0  0  0  0  0  0
   -4.6894    2.2806   -0.0769 H   0  0  0  0  0  0  0  0  0  0  0  0
   -5.1159    1.9174   -1.7854 H   0  0  0  0  0  0  0  0  0  0  0  0
   -4.5182    0.6153   -0.7443 H   0  0  0  0  0  0  0  0  0  0  0  0
    0.1568    0.4390    1.9583 H   0  0  0  0  0  0  0  0  0  0  0  0
   -0.5590    0.3536    4.2994 H   0  0  0  0  0  0  0  0  0  0  0  0
    2.6371   -2.3718    5.1661 H   0  0  0  0  0  0  0  0  0  0  0  0
    3.3833   -2.1984    2.8603 H   0  0  0  0  0  0  0  0  0  0  0  0
    1.0342   -2.6432    0.5341 H   0  0  0  0  0  0  0  0  0  0  0  0
    2.6811   -2.8538   -0.0940 H   0  0  0  0  0  0  0  0  0  0  0  0
    2.9018   -0.1814   -2.6676 N   0  0  0  0  0  0  0  0  0  0  0  0
    0.6075   -2.7137   -3.1668 H   0  0  0  0  0  0  0  0  0  0  0  0
    0.6922   -3.7798   -1.7671 H   0  0  0  0  0  0  0  0  0  0  0  0
    2.1936   -3.3664   -2.6521 H   0  0  0  0  0  0  0  0  0  0  0  0
    1.0947    0.6458   -2.0647 H   0  0  0  0  0  0  0  0  0  0  0  0
   -2.2810    0.0292   -0.9740 H   0  0  0  0  0  0  0  0  0  0  0  0
    0.6776    2.8736   -2.1353 H   0  0  0  0  0  0  0  0  0  0  0  0
   -1.0829    4.5882   -2.3370 H   0  0  0  0  0  0  0  0  0  0  0  0
  1  2  2  0
  1  7  1  0
  1 30  1  0
  2  3  1  0
  2 31  1  0
  3  4  1  0
  3  5  2  0
  5  6  1  0
  5 32  1  0
  6  7  2  0
  6 33  1  0
  7  8  1  0
  8  9  1  0
  8 10  1  0
  8 11  1  0
 11 12  1  0
 11 34  1  0
 11 35  1  0
 12 13  1  0
 12 14  1  0
 12 15  1  0
 13 36  2  0
 14 37  1  0
 14 38  1  0
 14 39  1  0
 15 16  2  0
 15 17  1  0
 17 18  1  0
 17 40  1  0
 18 19  2  0
 18 20  1  0
 19 25  1  0
 19 41  1  0
 20 21  2  0
 20 42  1  0
 21 22  1  0
 21 43  1  0
 22 23  1  0
 22 25  2  0
 23 24  3  0
 25 26  1  0
 26 27  1  0
 26 28  1  0
 26 29  1  0
M  END
>  <template_idx>  (5) 
1z95_ligand

>  <smiles>  (5) 
Cc1cc(NC(=O)C(C)(CCc2ccc(Br)cc2)N=N)ccc1C#N

>  <qed>  (5) 
0.670449475065282

$$$$
sample4
     RDKit          3D

 43 45  0  0  0  0  0  0  0  0999 V2000
    0.5862   -0.7314    2.1564 C   0  0  0  0  0  0  0  0  0  0  0  0
    0.3617   -0.4385    3.5193 C   0  0  0  0  0  0  0  0  0  0  0  0
    1.1821   -0.9697    4.5159 C   0  0  0  0  0  0  0  0  0  0  0  0
    1.0296   -0.7280    5.5881 H   0  0  0  0  0  0  0  0  0  0  0  0
    2.1757   -1.8262    4.1287 C   0  0  0  0  0  0  0  0  0  0  0  0
    2.3275   -2.1219    2.7514 C   0  0  0  0  0  0  0  0  0  0  0  0
    1.5445   -1.5688    1.7649 C   0  0  0  0  0  0  0  0  0  0  0  0
    2.8324   -0.9748   -0.0715 C   0  0  0  0  0  0  0  0  0  0  0  0
    3.3822    0.6514   -1.4035 H   0  0  0  0  0  0  0  0  0  0  0  0
    3.8573   -0.7590    0.5420 O   0  0  0  0  0  0  0  0  0  0  0  0
    1.8389   -1.9677    0.3168 C   0  0  0  0  0  0  0  0  0  0  0  0
    0.6287   -2.0382   -0.5115 C   0  0  0  0  0  0  0  0  0  0  0  0
    2.4706   -0.7293   -2.2012 H   0  0  0  0  0  0  0  0  0  0  0  0
    0.7967   -2.6809   -1.8992 C   0  0  0  0  0  0  0  0  0  0  0  0
   -0.2474   -0.9324   -0.6389 N   0  0  0  0  0  0  0  0  0  0  0  0
   -1.0886   -1.1046   -1.2395 H   0  0  0  0  0  0  0  0  0  0  0  0
    0.2623    0.3280   -0.8536 C   0  0  0  0  0  0  0  0  0  0  0  0
   -0.6921    1.3589   -1.1184 C   0  0  0  0  0  0  0  0  0  0  0  0
   -2.0188    1.1326   -0.9438 C   0  0  0  0  0  0  0  0  0  0  0  0
   -0.2180    2.5408   -1.5604 C   0  0  0  0  0  0  0  0  0  0  0  0
   -1.1294    3.5536   -1.8864 C   0  0  0  0  0  0  0  0  0  0  0  0
   -2.5299    3.3546   -1.7205 C   0  0  0  0  0  0  0  0  0  0  0  0
   -3.3960    4.3333   -1.9827 O   0  0  0  0  0  0  0  0  0  0  0  0
   -4.0730    4.3053   -1.5278 H   0  0  0  0  0  0  0  0  0  0  0  0
   -2.9591    2.1221   -1.2446 C   0  0  0  0  0  0  0  0  0  0  0  0
   -4.4015    1.8733   -1.0427 C   0  0  0  0  0  0  0  0  0  0  0  0
   -4.7196    2.1827   -0.0369 H   0  0  0  0  0  0  0  0  0  0  0  0
   -5.0278    2.4492   -1.7655 H   0  0  0  0  0  0  0  0  0  0  0  0
   -4.5951    0.7992   -1.1757 H   0  0  0  0  0  0  0  0  0  0  0  0
   -0.0995   -0.3301    1.4600 H   0  0  0  0  0  0  0  0  0  0  0  0
   -0.4358    0.2340    3.7768 H   0  0  0  0  0  0  0  0  0  0  0  0
    2.8368   -2.2838    4.8920 H   0  0  0  0  0  0  0  0  0  0  0  0
    3.0686   -2.8009    2.5015 H   0  0  0  0  0  0  0  0  0  0  0  0
   -0.0021   -2.7679    0.0539 H   0  0  0  0  0  0  0  0  0  0  0  0
    2.3551   -2.9453    0.2577 H   0  0  0  0  0  0  0  0  0  0  0  0
    2.5610   -0.1033   -1.2469 C   0  0  0  0  0  0  0  0  0  0  0  0
    0.8116   -1.8976   -2.7158 H   0  0  0  0  0  0  0  0  0  0  0  0
   -0.0537   -3.3634   -2.0854 H   0  0  0  0  0  0  0  0  0  0  0  0
    1.7310   -3.2561   -1.9676 H   0  0  0  0  0  0  0  0  0  0  0  0
    1.4459    0.6552   -0.9152 N   0  0  0  0  0  0  0  0  0  0  0  0
   -2.4169    0.2016   -0.5885 H   0  0  0  0  0  0  0  0  0  0  0  0
    0.8322    2.7442   -1.6645 H   0  0  0  0  0  0  0  0  0  0  0  0
   -0.8146    4.4995   -2.2168 H   0  0  0  0  0  0  0  0  0  0  0  0
  1  2  2  0
  1  7  1  0
  1 30  1  0
  2  3  1  0
  2 31  1  0
  3  4  1  0
  3  5  2  0
  5  6  1  0
  5 32  1  0
  6  7  2  0
  6 33  1  0
  7 11  1  0
  8 10  2  0
  8 11  1  0
  8 36  1  0
  9 36  1  0
 11 12  1  0
 11 35  1  0
 12 14  1  0
 12 15  1  0
 12 34  1  0
 13 36  1  0
 14 37  1  0
 14 38  1  0
 14 39  1  0
 15 16  1  0
 15 17  1  0
 17 18  1  0
 17 40  2  0
 18 19  2  0
 18 20  1  0
 19 25  1  0
 19 41  1  0
 20 21  2  0
 20 42  1  0
 21 22  1  0
 21 43  1  0
 22 23  1  0
 22 25  2  0
 23 24  1  0
 25 26  1  0
 26 27  1  0
 26 28  1  0
 26 29  1  0
 36 40  1  0
M  END
>  <template_idx>  (6) 
1z95_ligand

>  <smiles>  (6) 
Cc1cc(C2=NCC(=O)C(c3ccccc3)C(C)N2)ccc1O

>  <qed>  (6) 
0.8965531184055274

$$$$
sample5
     RDKit          3D

 43 44  0  0  0  0  0  0  0  0999 V2000
    0.5754   -0.1154    2.3960 C   0  0  0  0  0  0  0  0  0  0  0  0
    0.0717   -0.1594    3.6933 C   0  0  0  0  0  0  0  0  0  0  0  0
    0.7276   -0.9437    4.6455 C   0  0  0  0  0  0  0  0  0  0  0  0
    0.3160   -1.0623    5.6555 H   0  0  0  0  0  0  0  0  0  0  0  0
    1.8865   -1.6068    4.3145 C   0  0  0  0  0  0  0  0  0  0  0  0
    2.3489   -1.5282    3.0269 C   0  0  0  0  0  0  0  0  0  0  0  0
    1.6887   -0.8097    2.0803 C   0  0  0  0  0  0  0  0  0  0  0  0
    2.4108   -0.6492    0.5083 S   0  0  0  0  0  0  0  0  0  0  0  0
    1.8582    0.6620    0.0166 O   0  0  0  0  0  0  0  0  0  0  0  0
    3.8567   -0.6715    0.6257 O   0  0  0  0  0  0  0  0  0  0  0  0
    2.0296   -2.2277   -0.3623 C   0  0  0  0  0  0  0  0  0  0  0  0
    1.8110   -3.1382   -3.2682 H   0  0  0  0  0  0  0  0  0  0  0  0
    1.9659    0.3206   -1.8206 H   0  0  0  0  0  0  0  0  0  0  0  0
    0.9786   -2.9100   -2.5578 C   0  0  0  0  0  0  0  0  0  0  0  0
   -0.0621   -1.2547   -0.8641 C   0  0  0  0  0  0  0  0  0  0  0  0
   -0.3069   -1.6585    0.1006 H   0  0  0  0  0  0  0  0  0  0  0  0
    0.0463   -0.1320   -1.4305 C   0  0  0  0  0  0  0  0  0  0  0  0
   -0.6952    1.0746   -1.4085 C   0  0  0  0  0  0  0  0  0  0  0  0
   -2.0120    0.9467   -1.1902 C   0  0  0  0  0  0  0  0  0  0  0  0
   -0.1062    2.2914   -1.5455 C   0  0  0  0  0  0  0  0  0  0  0  0
   -0.8833    3.4005   -1.5001 C   0  0  0  0  0  0  0  0  0  0  0  0
   -2.2911    3.3420   -1.2548 C   0  0  0  0  0  0  0  0  0  0  0  0
   -2.9969    4.4350   -1.1870 O   0  0  0  0  0  0  0  0  0  0  0  0
   -3.8701    4.2225   -1.2242 H   0  0  0  0  0  0  0  0  0  0  0  0
   -2.8194    2.0767   -1.0612 C   0  0  0  0  0  0  0  0  0  0  0  0
   -4.2345    1.8767   -0.7424 C   0  0  0  0  0  0  0  0  0  0  0  0
   -4.7612    2.7745    0.0671 F   0  0  0  0  0  0  0  0  0  0  0  0
   -4.9613    1.8609   -1.8302 F   0  0  0  0  0  0  0  0  0  0  0  0
   -4.4534    0.6786   -0.1976 F   0  0  0  0  0  0  0  0  0  0  0  0
    0.1348    0.5064    1.6363 H   0  0  0  0  0  0  0  0  0  0  0  0
   -0.8025    0.3921    3.9395 H   0  0  0  0  0  0  0  0  0  0  0  0
    2.3941   -2.2040    5.0704 H   0  0  0  0  0  0  0  0  0  0  0  0
    3.2536   -2.0445    2.7565 H   0  0  0  0  0  0  0  0  0  0  0  0
    1.3850   -2.7221    0.3475 H   0  0  0  0  0  0  0  0  0  0  0  0
    2.9369   -2.6688   -0.5959 H   0  0  0  0  0  0  0  0  0  0  0  0
    1.3384   -0.3885   -3.2831 H   0  0  0  0  0  0  0  0  0  0  0  0
    0.1328   -2.5156   -3.2207 H   0  0  0  0  0  0  0  0  0  0  0  0
    0.5797   -3.8776   -2.0293 H   0  0  0  0  0  0  0  0  0  0  0  0
    1.2768   -1.8960   -1.6196 C   0  0  0  0  0  0  0  0  0  0  0  0
    1.2361   -0.4737   -2.1940 C   0  0  0  0  0  0  0  0  0  0  0  0
   -2.4821   -0.0151   -1.1410 H   0  0  0  0  0  0  0  0  0  0  0  0
    0.9732    2.4080   -1.6953 H   0  0  0  0  0  0  0  0  0  0  0  0
   -0.4751    4.4040   -1.6563 H   0  0  0  0  0  0  0  0  0  0  0  0
  1  2  2  0
  1  7  1  0
  1 30  1  0
  2  3  1  0
  2 31  1  0
  3  4  1  0
  3  5  2  0
  5  6  1  0
  5 32  1  0
  6  7  2  0
  6 33  1  0
  7  8  1  0
  8  9  2  0
  8 10  2  0
  8 11  1  0
 11 34  1  0
 11 35  1  0
 11 39  1  0
 12 14  1  0
 13 40  1  0
 14 37  1  0
 14 38  1  0
 14 39  1  0
 15 16  1  0
 15 17  2  3
 17 18  1  0
 17 40  1  0
 18 19  2  0
 18 20  1  0
 19 25  1  0
 19 41  1  0
 20 21  2  0
 20 42  1  0
 21 22  1  0
 21 43  1  0
 22 23  1  0
 22 25  2  0
 23 24  1  0
 25 26  1  0
 26 27  1  0
 26 28  1  0
 26 29  1  0
 36 40  1  0
 39 40  1  0
M  END
>  <template_idx>  (7) 
1z95_ligand

>  <smiles>  (7) 
C=C(CC(C)CS(=O)(=O)c1ccccc1)c1ccc(O)c(C(F)(F)F)c1

>  <qed>  (7) 
0.7687676523354424

$$$$
sample6
     RDKit          3D

 43 44  0  0  0  0  0  0  0  0999 V2000
    0.6046   -0.5702    2.5581 C   0  0  0  0  0  0  0  0  0  0  0  0
    0.1992   -0.4728    3.8699 C   0  0  0  0  0  0  0  0  0  0  0  0
    1.0663   -0.8771    4.8900 C   0  0  0  0  0  0  0  0  0  0  0  0
    0.7430   -0.8508    5.9502 H   0  0  0  0  0  0  0  0  0  0  0  0
    2.3203   -1.3643    4.5584 C   0  0  0  0  0  0  0  0  0  0  0  0
    2.7160   -1.4132    3.2509 C   0  0  0  0  0  0  0  0  0  0  0  0
    1.8590   -1.0333    2.2039 C   0  0  0  0  0  0  0  0  0  0  0  0
    2.3072   -1.0902    0.8170 C   0  0  0  0  0  0  0  0  0  0  0  0
    2.0263   -0.1010    0.3804 H   0  0  0  0  0  0  0  0  0  0  0  0
    3.3968   -1.1634    0.7518 H   0  0  0  0  0  0  0  0  0  0  0  0
    1.6830   -2.2244    0.0105 C   0  0  0  0  0  0  0  0  0  0  0  0
    1.2738   -1.7957   -1.4095 C   0  0  0  0  0  0  0  0  0  0  0  0
    2.3399   -1.0577   -1.9090 C   0  0  0  0  0  0  0  0  0  0  0  0
    0.9842   -3.0447   -2.3564 C   0  0  0  0  0  0  0  0  0  0  0  0
    0.0350   -0.9245   -1.3083 C   0  0  0  0  0  0  0  0  0  0  0  0
   -1.0013   -1.3842   -0.8475 O   0  0  0  0  0  0  0  0  0  0  0  0
    0.1971    0.3282   -1.7311 N   0  0  0  0  0  0  0  0  0  0  0  0
   -0.7676    1.3330   -1.6507 C   0  0  0  0  0  0  0  0  0  0  0  0
   -2.0281    1.0923   -1.2241 C   0  0  0  0  0  0  0  0  0  0  0  0
   -0.3875    2.6094   -2.0536 C   0  0  0  0  0  0  0  0  0  0  0  0
   -1.3403    3.6087   -2.0479 C   0  0  0  0  0  0  0  0  0  0  0  0
   -2.6850    3.3847   -1.6519 C   0  0  0  0  0  0  0  0  0  0  0  0
   -3.5471    4.3778   -1.6358 O   0  0  0  0  0  0  0  0  0  0  0  0
   -3.1168    5.1292   -1.8119 H   0  0  0  0  0  0  0  0  0  0  0  0
   -3.0027    2.0921   -1.2574 C   0  0  0  0  0  0  0  0  0  0  0  0
   -4.4045    1.8575   -0.8699 C   0  0  0  0  0  0  0  0  0  0  0  0
   -4.7310    2.5651    0.0399 H   0  0  0  0  0  0  0  0  0  0  0  0
   -4.6128    0.8259   -0.6551 H   0  0  0  0  0  0  0  0  0  0  0  0
   -5.1143    1.9666   -1.7362 H   0  0  0  0  0  0  0  0  0  0  0  0
   -0.1054   -0.2925    1.7881 H   0  0  0  0  0  0  0  0  0  0  0  0
   -0.7831   -0.0772    4.0988 H   0  0  0  0  0  0  0  0  0  0  0  0
    2.9908   -1.7536    5.3605 H   0  0  0  0  0  0  0  0  0  0  0  0
    3.7182   -1.7603    3.0291 H   0  0  0  0  0  0  0  0  0  0  0  0
    0.7674   -2.5186    0.5270 H   0  0  0  0  0  0  0  0  0  0  0  0
    2.3469   -3.0788   -0.1009 H   0  0  0  0  0  0  0  0  0  0  0  0
    3.0759   -0.4893   -2.2790 O   0  0  0  0  0  0  0  0  0  0  0  0
    0.3650   -2.7393   -3.2207 H   0  0  0  0  0  0  0  0  0  0  0  0
    0.4411   -3.7943   -1.7969 H   0  0  0  0  0  0  0  0  0  0  0  0
    1.9425   -3.4551   -2.6793 H   0  0  0  0  0  0  0  0  0  0  0  0
    1.0413    0.6384   -2.1934 H   0  0  0  0  0  0  0  0  0  0  0  0
   -2.3256    0.1099   -0.8785 H   0  0  0  0  0  0  0  0  0  0  0  0
    0.6009    2.7969   -2.3895 H   0  0  0  0  0  0  0  0  0  0  0  0
   -1.0885    4.6107   -2.3902 H   0  0  0  0  0  0  0  0  0  0  0  0
  1  2  2  0
  1  7  1  0
  1 30  1  0
  2  3  1  0
  2 31  1  0
  3  4  1  0
  3  5  2  0
  5  6  1  0
  5 32  1  0
  6  7  2  0
  6 33  1  0
  7  8  1  0
  8  9  1  0
  8 10  1  0
  8 11  1  0
 11 12  1  0
 11 34  1  0
 11 35  1  0
 12 13  1  0
 12 14  1  0
 12 15  1  0
 13 36  2  0
 14 37  1  0
 14 38  1  0
 14 39  1  0
 15 16  2  0
 15 17  1  0
 17 18  1  0
 17 40  1  0
 18 19  2  0
 18 20  1  0
 19 25  1  0
 19 41  1  0
 20 21  2  0
 20 42  1  0
 21 22  1  0
 21 43  1  0
 22 23  1  0
 22 25  2  0
 23 24  1  0
 25 26  1  0
 26 27  1  0
 26 28  1  0
 26 29  1  0
M  END
>  <template_idx>  (8) 
1z95_ligand

>  <smiles>  (8) 
Cc1cc(NC(=O)C(C)(C=O)CCc2ccccc2)ccc1O

>  <qed>  (8) 
0.4874630694916921

$$$$
sample7
     RDKit          3D

 43 44  0  0  0  0  0  0  0  0999 V2000
    0.1738   -0.9713    2.3727 C   0  0  0  0  0  0  0  0  0  0  0  0
    0.1625   -0.4439    3.6301 C   0  0  0  0  0  0  0  0  0  0  0  0
    1.1443   -0.8646    4.5413 C   0  0  0  0  0  0  0  0  0  0  0  0
    1.0233   -0.4162    6.1785 Cl  0  0  0  0  0  0  0  0  0  0  0  0
    2.1610   -1.7321    4.1603 C   0  0  0  0  0  0  0  0  0  0  0  0
    2.1305   -2.2095    2.8530 C   0  0  0  0  0  0  0  0  0  0  0  0
    1.1722   -1.8005    1.9646 C   0  0  0  0  0  0  0  0  0  0  0  0
    2.7435   -0.5976    0.3797 C   0  0  0  0  0  0  0  0  0  0  0  0
    1.9916    0.1610    0.7082 H   0  0  0  0  0  0  0  0  0  0  0  0
    3.4312   -0.7867    1.2939 H   0  0  0  0  0  0  0  0  0  0  0  0
    2.0313   -1.8748   -0.1499 C   0  0  0  0  0  0  0  0  0  0  0  0
    1.3481   -1.5896   -1.4574 C   0  0  0  0  0  0  0  0  0  0  0  0
    2.0746   -1.3004   -2.2623 H   0  0  0  0  0  0  0  0  0  0  0  0
    0.6559   -2.8331   -1.9701 C   0  0  0  0  0  0  0  0  0  0  0  0
    0.4453   -0.5077   -1.3173 N   0  0  0  0  0  0  0  0  0  0  0  0
   -0.0448   -0.3642   -0.4142 H   0  0  0  0  0  0  0  0  0  0  0  0
    0.4155    0.4571   -2.2383 C   0  0  0  0  0  0  0  0  0  0  0  0
   -0.6580    1.4170   -1.9375 C   0  0  0  0  0  0  0  0  0  0  0  0
   -1.8740    1.0113   -1.4777 C   0  0  0  0  0  0  0  0  0  0  0  0
   -0.3245    2.7299   -2.2157 C   0  0  0  0  0  0  0  0  0  0  0  0
   -1.2864    3.6589   -2.0150 C   0  0  0  0  0  0  0  0  0  0  0  0
   -2.5636    3.2786   -1.5348 C   0  0  0  0  0  0  0  0  0  0  0  0
   -3.5292    4.2340   -1.4283 C   0  0  0  0  0  0  0  0  0  0  0  0
   -4.2344    5.0287   -1.3913 N   0  0  0  0  0  0  0  0  0  0  0  0
   -2.8408    1.9481   -1.2540 C   0  0  0  0  0  0  0  0  0  0  0  0
   -4.1699    1.5945   -0.7062 C   0  0  0  0  0  0  0  0  0  0  0  0
   -4.3187    2.1343    0.2424 H   0  0  0  0  0  0  0  0  0  0  0  0
   -4.9537    1.9629   -1.3936 H   0  0  0  0  0  0  0  0  0  0  0  0
   -4.2349    0.5207   -0.5341 H   0  0  0  0  0  0  0  0  0  0  0  0
   -0.6680   -0.7490    1.7132 H   0  0  0  0  0  0  0  0  0  0  0  0
   -0.5638    0.2944    3.9024 H   0  0  0  0  0  0  0  0  0  0  0  0
    2.9193   -2.0149    4.8594 H   0  0  0  0  0  0  0  0  0  0  0  0
    2.8914   -2.8961    2.5393 H   0  0  0  0  0  0  0  0  0  0  0  0
    1.0644   -2.4798    0.6802 O   0  0  0  0  0  0  0  0  0  0  0  0
    2.8542   -2.6227   -0.3483 H   0  0  0  0  0  0  0  0  0  0  0  0
    3.3270   -0.2125   -0.4074 H   0  0  0  0  0  0  0  0  0  0  0  0
    0.1512   -2.5799   -2.9303 H   0  0  0  0  0  0  0  0  0  0  0  0
   -0.0679   -3.1085   -1.1900 H   0  0  0  0  0  0  0  0  0  0  0  0
    1.3681   -3.6234   -2.1139 H   0  0  0  0  0  0  0  0  0  0  0  0
    1.1958    0.5270   -3.1754 O   0  0  0  0  0  0  0  0  0  0  0  0
   -2.1058   -0.0482   -1.3044 H   0  0  0  0  0  0  0  0  0  0  0  0
    0.6605    2.9900   -2.6014 H   0  0  0  0  0  0  0  0  0  0  0  0
   -1.0978    4.6786   -2.2505 H   0  0  0  0  0  0  0  0  0  0  0  0
  1  2  2  0
  1  7  1  0
  1 30  1  0
  2  3  1  0
  2 31  1  0
  3  4  1  0
  3  5  2  0
  5  6  1  0
  5 32  1  0
  6  7  2  0
  6 33  1  0
  7 34  1  0
  8  9  1  0
  8 10  1  0
  8 11  1  0
  8 36  1  0
 11 12  1  0
 11 34  1  0
 11 35  1  0
 12 13  1  0
 12 14  1  0
 12 15  1  0
 14 37  1  0
 14 38  1  0
 14 39  1  0
 15 16  1  0
 15 17  1  0
 17 18  1  0
 17 40  2  0
 18 19  2  0
 18 20  1  0
 19 25  1  0
 19 41  1  0
 20 21  2  0
 20 42  1  0
 21 22  1  0
 21 43  1  0
 22 23  1  0
 22 25  2  0
 23 24  3  0
 25 26  1  0
 26 27  1  0
 26 28  1  0
 26 29  1  0
M  END
>  <template_idx>  (9) 
1z95_ligand

>  <smiles>  (9) 
Cc1cc(C(=O)NC(C)C(C)Oc2ccc(Cl)cc2)ccc1C#N

>  <qed>  (9) 
0.8891104790981758

$$$$
sample8
     RDKit          3D

 43 45  0  0  0  0  0  0  0  0999 V2000
    0.6996   -0.5897    2.2586 C   0  0  0  0  0  0  0  0  0  0  0  0
    0.0557   -0.8202    3.4599 C   0  0  0  0  0  0  0  0  0  0  0  0
    0.7736   -1.3622    4.5159 C   0  0  0  0  0  0  0  0  0  0  0  0
   -0.0621   -1.5099    6.3112 Br  0  0  0  0  0  0  0  0  0  0  0  0
    2.0826   -1.7563    4.3621 C   0  0  0  0  0  0  0  0  0  0  0  0
    2.6822   -1.5362    3.1348 C   0  0  0  0  0  0  0  0  0  0  0  0
    1.9814   -0.9465    2.1164 C   0  0  0  0  0  0  0  0  0  0  0  0
    2.9003   -0.5365    0.6588 S   0  0  0  0  0  0  0  0  0  0  0  0
    2.5560    0.8067    0.2486 O   0  0  0  0  0  0  0  0  0  0  0  0
    4.2459   -0.8959    0.7531 O   0  0  0  0  0  0  0  0  0  0  0  0
    2.1402   -1.8182   -0.4759 C   0  0  0  0  0  0  0  0  0  0  0  0
    1.0243   -1.8133   -1.3733 C   0  0  0  0  0  0  0  0  0  0  0  0
    2.1418   -1.2470   -1.7228 C   0  0  0  0  0  0  0  0  0  0  0  0
    0.6570   -3.1476   -2.0884 C   0  0  0  0  0  0  0  0  0  0  0  0
   -0.1984   -0.9485   -1.2271 C   0  0  0  0  0  0  0  0  0  0  0  0
   -1.3425   -1.4133   -1.4623 O   0  0  0  0  0  0  0  0  0  0  0  0
    0.0810    0.2927   -0.9205 N   0  0  0  0  0  0  0  0  0  0  0  0
   -0.8146    1.2991   -1.1972 C   0  0  0  0  0  0  0  0  0  0  0  0
   -2.1061    1.0816   -0.9636 C   0  0  0  0  0  0  0  0  0  0  0  0
   -0.3244    2.4929   -1.6363 C   0  0  0  0  0  0  0  0  0  0  0  0
   -1.2437    3.5063   -1.8583 C   0  0  0  0  0  0  0  0  0  0  0  0
   -2.6152    3.3371   -1.6141 C   0  0  0  0  0  0  0  0  0  0  0  0
   -3.4408    4.3475   -1.8104 O   0  0  0  0  0  0  0  0  0  0  0  0
   -2.9228    5.0715   -1.9334 H   0  0  0  0  0  0  0  0  0  0  0  0
   -3.0136    2.0855   -1.1566 C   0  0  0  0  0  0  0  0  0  0  0  0
   -4.4297    1.9186   -0.8517 C   0  0  0  0  0  0  0  0  0  0  0  0
   -4.6981    2.5275    0.0403 H   0  0  0  0  0  0  0  0  0  0  0  0
   -5.0714    2.3722   -1.6519 H   0  0  0  0  0  0  0  0  0  0  0  0
   -4.6601    0.8587   -0.7342 H   0  0  0  0  0  0  0  0  0  0  0  0
    0.1167   -0.1298    1.4268 H   0  0  0  0  0  0  0  0  0  0  0  0
   -0.9326   -0.4463    3.5755 H   0  0  0  0  0  0  0  0  0  0  0  0
    2.6324   -2.2537    5.1643 H   0  0  0  0  0  0  0  0  0  0  0  0
    3.7177   -1.8055    3.0078 H   0  0  0  0  0  0  0  0  0  0  0  0
    2.3263   -2.7461    0.0028 H   0  0  0  0  0  0  0  0  0  0  0  0
    2.7186   -1.6991   -2.5125 H   0  0  0  0  0  0  0  0  0  0  0  0
    2.3354   -0.0751   -1.8913 H   0  0  0  0  0  0  0  0  0  0  0  0
    0.5627   -2.9611   -3.1193 H   0  0  0  0  0  0  0  0  0  0  0  0
   -0.2946   -3.5133   -1.6947 H   0  0  0  0  0  0  0  0  0  0  0  0
    1.4297   -3.9332   -1.9156 H   0  0  0  0  0  0  0  0  0  0  0  0
    0.9973    0.6089   -0.5829 H   0  0  0  0  0  0  0  0  0  0  0  0
   -2.4837    0.1212   -0.6359 H   0  0  0  0  0  0  0  0  0  0  0  0
    0.6913    2.6773   -1.8193 H   0  0  0  0  0  0  0  0  0  0  0  0
   -0.8953    4.4995   -2.1873 H   0  0  0  0  0  0  0  0  0  0  0  0
  1  2  2  0
  1  7  1  0
  1 30  1  0
  2  3  1  0
  2 31  1  0
  3  4  1  0
  3  5  2  0
  5  6  1  0
  5 32  1  0
  6  7  2  0
  6 33  1  0
  7  8  1  0
  8  9  2  0
  8 10  2  0
  8 11  1  0
 11 12  1  0
 11 13  1  0
 11 34  1  0
 12 13  1  0
 12 14  1  0
 12 15  1  0
 13 35  1  0
 13 36  1  0
 14 37  1  0
 14 38  1  0
 14 39  1  0
 15 16  2  0
 15 17  1  0
 17 18  1  0
 17 40  1  0
 18 19  2  0
 18 20  1  0
 19 25  1  0
 19 41  1  0
 20 21  2  0
 20 42  1  0
 21 22  1  0
 21 43  1  0
 22 23  1  0
 22 25  2  0
 23 24  1  0
 25 26  1  0
 26 27  1  0
 26 28  1  0
 26 29  1  0
M  END
>  <template_idx>  (10) 
1z95_ligand

>  <smiles>  (10) 
Cc1cc(NC(=O)C2(C)CC2S(=O)(=O)c2ccc(Br)cc2)ccc1O

>  <qed>  (10) 
0.7344114248404326

$$$$
sample9
     RDKit          3D

 43 45  0  0  0  0  0  0  0  0999 V2000
    0.6075   -0.1315    2.3758 C   0  0  0  0  0  0  0  0  0  0  0  0
    0.0556   -0.2207    3.6520 C   0  0  0  0  0  0  0  0  0  0  0  0
    0.6997   -1.0043    4.6070 C   0  0  0  0  0  0  0  0  0  0  0  0
    0.3003   -1.0864    5.6388 H   0  0  0  0  0  0  0  0  0  0  0  0
    1.8526   -1.6917    4.2812 C   0  0  0  0  0  0  0  0  0  0  0  0
    2.3450   -1.6065    2.9889 C   0  0  0  0  0  0  0  0  0  0  0  0
    1.7169   -0.8506    2.0528 C   0  0  0  0  0  0  0  0  0  0  0  0
    2.4984   -0.7350    0.5127 S   0  0  0  0  0  0  0  0  0  0  0  0
    2.0280    0.4639   -0.1301 O   0  0  0  0  0  0  0  0  0  0  0  0
    3.9411   -0.8497    0.6464 O   0  0  0  0  0  0  0  0  0  0  0  0
    1.9266   -2.2223   -0.2668 C   0  0  0  0  0  0  0  0  0  0  0  0
    1.1725   -1.7668   -1.5347 C   0  0  0  0  0  0  0  0  0  0  0  0
    1.9386   -0.9540   -2.3938 N   0  0  0  0  0  0  0  0  0  0  0  0
    0.7274   -2.9886   -2.3462 C   0  0  0  0  0  0  0  0  0  0  0  0
   -0.0057   -0.9077   -1.0234 C   0  0  0  0  0  0  0  0  0  0  0  0
   -0.7732   -1.2469   -0.1635 O   0  0  0  0  0  0  0  0  0  0  0  0
    0.1462    0.2262   -1.7214 N   0  0  0  0  0  0  0  0  0  0  0  0
   -0.7078    1.2862   -1.5701 C   0  0  0  0  0  0  0  0  0  0  0  0
   -1.9850    1.0017   -1.2990 C   0  0  0  0  0  0  0  0  0  0  0  0
   -0.2046    2.5621   -1.7001 C   0  0  0  0  0  0  0  0  0  0  0  0
   -1.0861    3.5870   -1.5477 C   0  0  0  0  0  0  0  0  0  0  0  0
   -2.4755    3.3740   -1.2642 C   0  0  0  0  0  0  0  0  0  0  0  0
   -3.2294    4.4519   -1.1641 O   0  0  0  0  0  0  0  0  0  0  0  0
   -2.7561    5.2047   -1.3541 H   0  0  0  0  0  0  0  0  0  0  0  0
   -2.8945    2.0256   -1.1133 C   0  0  0  0  0  0  0  0  0  0  0  0
   -4.2577    1.6411   -0.6987 C   0  0  0  0  0  0  0  0  0  0  0  0
   -4.2045    1.0722    0.4851 F   0  0  0  0  0  0  0  0  0  0  0  0
   -5.0916    2.6701   -0.6476 F   0  0  0  0  0  0  0  0  0  0  0  0
   -4.8066    0.7701   -1.4699 F   0  0  0  0  0  0  0  0  0  0  0  0
    0.1411    0.4913    1.6493 H   0  0  0  0  0  0  0  0  0  0  0  0
   -0.8452    0.3191    3.8854 H   0  0  0  0  0  0  0  0  0  0  0  0
    2.3605   -2.2943    5.0414 H   0  0  0  0  0  0  0  0  0  0  0  0
    3.2440   -2.1470    2.7275 H   0  0  0  0  0  0  0  0  0  0  0  0
    1.2447   -2.7293    0.4135 H   0  0  0  0  0  0  0  0  0  0  0  0
    2.7485   -2.8419   -0.5852 H   0  0  0  0  0  0  0  0  0  0  0  0
    2.8324   -0.7550   -2.1041 H   0  0  0  0  0  0  0  0  0  0  0  0
    0.1226   -2.5944   -3.1484 H   0  0  0  0  0  0  0  0  0  0  0  0
    0.0975   -3.6368   -1.7120 H   0  0  0  0  0  0  0  0  0  0  0  0
    1.6067   -3.5157   -2.7069 H   0  0  0  0  0  0  0  0  0  0  0  0
    1.2126    0.2520   -2.5590 O   0  0  0  0  0  0  0  0  0  0  0  0
   -2.3520   -0.0352   -1.2317 H   0  0  0  0  0  0  0  0  0  0  0  0
    0.8410    2.7598   -1.8975 H   0  0  0  0  0  0  0  0  0  0  0  0
   -0.7325    4.6533   -1.6045 H   0  0  0  0  0  0  0  0  0  0  0  0
  1  2  2  0
  1  7  1  0
  1 30  1  0
  2  3  1  0
  2 31  1  0
  3  4  1  0
  3  5  2  0
  5  6  1  0
  5 32  1  0
  6  7  2  0
  6 33  1  0
  7  8  1  0
  8  9  2  0
  8 10  2  0
  8 11  1  0
 11 12  1  0
 11 34  1  0
 11 35  1  0
 12 13  1  0
 12 14  1  0
 12 15  1  0
 13 36  1  0
 13 40  1  0
 14 37  1  0
 14 38  1  0
 14 39  1  0
 15 16  2  0
 15 17  1  0
 17 18  1  0
 17 40  1  0
 18 19  2  0
 18 20  1  0
 19 25  1  0
 19 41  1  0
 20 21  2  0
 20 42  1  0
 21 22  1  0
 21 43  1  0
 22 23  1  0
 22 25  2  0
 23 24  1  0
 25 26  1  0
 26 27  1  0
 26 28  1  0
 26 29  1  0
M  END
>  <template_idx>  (11) 
1z95_ligand

>  <smiles>  (11) 
CC1(CS(=O)(=O)c2ccccc2)NON(c2ccc(O)c(C(F)(F)F)c2)C1=O

>  <qed>  (11) 
0.7949962623721855

$$$$
sample10
     RDKit          3D

 43 44  0  0  0  0  0  0  0  0999 V2000
    0.6905   -0.7133    2.4634 C   0  0  0  0  0  0  0  0  0  0  0  0
    0.1135   -0.6908    3.7374 C   0  0  0  0  0  0  0  0  0  0  0  0
    0.8820   -1.0475    4.8424 C   0  0  0  0  0  0  0  0  0  0  0  0
    0.4350   -1.1021    5.8637 H   0  0  0  0  0  0  0  0  0  0  0  0
    2.2063   -1.3833    4.6679 C   0  0  0  0  0  0  0  0  0  0  0  0
    2.7344   -1.3727    3.4013 C   0  0  0  0  0  0  0  0  0  0  0  0
    1.9751   -1.0580    2.3086 C   0  0  0  0  0  0  0  0  0  0  0  0
    2.7809   -0.9605    0.7703 S   0  0  0  0  0  0  0  0  0  0  0  0
    2.4834    0.3496    0.1585 O   0  0  0  0  0  0  0  0  0  0  0  0
    4.1220   -1.2926    0.8691 O   0  0  0  0  0  0  0  0  0  0  0  0
    1.9288   -2.2642   -0.1038 C   0  0  0  0  0  0  0  0  0  0  0  0
    1.4450   -1.6185   -1.4191 C   0  0  0  0  0  0  0  0  0  0  0  0
   -0.2967   -1.6238   -2.9842 H   0  0  0  0  0  0  0  0  0  0  0  0
    1.0980   -2.7113   -2.4963 C   0  0  0  0  0  0  0  0  0  0  0  0
    0.2480   -0.7596   -1.1550 C   0  0  0  0  0  0  0  0  0  0  0  0
   -0.8583   -1.3298   -0.8252 O   0  0  0  0  0  0  0  0  0  0  0  0
    0.3944    0.5036   -1.2656 N   0  0  0  0  0  0  0  0  0  0  0  0
   -0.6148    1.4172   -1.4513 C   0  0  0  0  0  0  0  0  0  0  0  0
   -1.8809    1.1013   -1.1909 C   0  0  0  0  0  0  0  0  0  0  0  0
   -0.2503    2.6927   -1.8921 C   0  0  0  0  0  0  0  0  0  0  0  0
   -1.2518    3.6452   -2.0264 C   0  0  0  0  0  0  0  0  0  0  0  0
   -2.5876    3.3270   -1.6859 C   0  0  0  0  0  0  0  0  0  0  0  0
   -3.5918    4.2963   -1.7068 C   0  0  0  0  0  0  0  0  0  0  0  0
   -4.4015    5.0173   -1.6748 N   0  0  0  0  0  0  0  0  0  0  0  0
   -2.8878    2.0293   -1.2747 C   0  0  0  0  0  0  0  0  0  0  0  0
   -4.2905    1.7008   -0.9435 C   0  0  0  0  0  0  0  0  0  0  0  0
   -4.7807    2.5411   -0.3501 H   0  0  0  0  0  0  0  0  0  0  0  0
   -4.8744    1.6075   -1.8486 H   0  0  0  0  0  0  0  0  0  0  0  0
   -4.3350    0.7435   -0.4282 H   0  0  0  0  0  0  0  0  0  0  0  0
    0.1001   -0.4717    1.6072 H   0  0  0  0  0  0  0  0  0  0  0  0
   -0.9280   -0.4398    3.8550 H   0  0  0  0  0  0  0  0  0  0  0  0
    2.8123   -1.6814    5.5289 H   0  0  0  0  0  0  0  0  0  0  0  0
    3.7659   -1.6480    3.2339 H   0  0  0  0  0  0  0  0  0  0  0  0
    1.0654   -2.5846    0.5015 H   0  0  0  0  0  0  0  0  0  0  0  0
    2.5980   -3.0381   -0.3297 H   0  0  0  0  0  0  0  0  0  0  0  0
    2.2449   -1.0027   -1.8078 H   0  0  0  0  0  0  0  0  0  0  0  0
    0.4097   -2.0761   -3.5185 O   0  0  0  0  0  0  0  0  0  0  0  0
    0.4151   -3.4742   -2.0564 H   0  0  0  0  0  0  0  0  0  0  0  0
    2.0102   -3.1861   -2.8224 H   0  0  0  0  0  0  0  0  0  0  0  0
    1.3264    0.8929   -1.1080 H   0  0  0  0  0  0  0  0  0  0  0  0
   -2.1491    0.0811   -0.8967 H   0  0  0  0  0  0  0  0  0  0  0  0
    0.7458    2.9390   -2.1602 H   0  0  0  0  0  0  0  0  0  0  0  0
   -1.0521    4.6451   -2.3870 H   0  0  0  0  0  0  0  0  0  0  0  0
  1  2  2  0
  1  7  1  0
  1 30  1  0
  2  3  1  0
  2 31  1  0
  3  4  1  0
  3  5  2  0
  5  6  1  0
  5 32  1  0
  6  7  2  0
  6 33  1  0
  7  8  1  0
  8  9  2  0
  8 10  2  0
  8 11  1  0
 11 12  1  0
 11 34  1  0
 11 35  1  0
 12 14  1  0
 12 15  1  0
 12 36  1  0
 13 37  1  0
 14 37  1  0
 14 38  1  0
 14 39  1  0
 15 16  2  0
 15 17  1  0
 17 18  1  0
 17 40  1  0
 18 19  2  0
 18 20  1  0
 19 25  1  0
 19 41  1  0
 20 21  2  0
 20 42  1  0
 21 22  1  0
 21 43  1  0
 22 23  1  0
 22 25  2  0
 23 24  3  0
 25 26  1  0
 26 27  1  0
 26 28  1  0
 26 29  1  0
M  END
>  <template_idx>  (12) 
1z95_ligand

>  <smiles>  (12) 
Cc1cc(NC(=O)C(CO)CS(=O)(=O)c2ccccc2)ccc1C#N

>  <qed>  (12) 
0.8197975764535391

$$$$
sample11
     RDKit          3D

 43 44  0  0  0  0  0  0  0  0999 V2000
    0.7215   -0.3814    2.6794 C   0  0  0  0  0  0  0  0  0  0  0  0
    0.3290   -0.3498    4.0255 C   0  0  0  0  0  0  0  0  0  0  0  0
    1.1209   -1.0046    4.9499 C   0  0  0  0  0  0  0  0  0  0  0  0
    0.7695   -1.1142    6.0225 H   0  0  0  0  0  0  0  0  0  0  0  0
    2.2975   -1.6235    4.5663 C   0  0  0  0  0  0  0  0  0  0  0  0
    2.6415   -1.6394    3.2311 C   0  0  0  0  0  0  0  0  0  0  0  0
    1.8545   -1.0121    2.2804 C   0  0  0  0  0  0  0  0  0  0  0  0
    2.4551   -0.9821    0.6572 S   0  0  0  0  0  0  0  0  0  0  0  0
    2.1182    0.3463    0.1285 O   0  0  0  0  0  0  0  0  0  0  0  0
    3.8413   -1.3185    0.5722 O   0  0  0  0  0  0  0  0  0  0  0  0
    1.5495   -2.2926   -0.1499 C   0  0  0  0  0  0  0  0  0  0  0  0
    1.2256   -1.8040   -1.5887 C   0  0  0  0  0  0  0  0  0  0  0  0
    2.2868   -1.0968   -2.1261 O   0  0  0  0  0  0  0  0  0  0  0  0
    0.9624   -3.0063   -2.5264 C   0  0  0  0  0  0  0  0  0  0  0  0
   -0.0265   -0.9385   -1.4864 C   0  0  0  0  0  0  0  0  0  0  0  0
   -1.1308   -1.4940   -1.3688 O   0  0  0  0  0  0  0  0  0  0  0  0
    0.1903    0.3624   -1.5003 N   0  0  0  0  0  0  0  0  0  0  0  0
   -0.7365    1.4156   -1.5546 C   0  0  0  0  0  0  0  0  0  0  0  0
   -2.0571    1.1540   -1.4552 C   0  0  0  0  0  0  0  0  0  0  0  0
   -0.2607    2.7139   -1.6925 C   0  0  0  0  0  0  0  0  0  0  0  0
   -1.1544    3.7614   -1.6761 C   0  0  0  0  0  0  0  0  0  0  0  0
   -2.5564    3.5248   -1.5054 C   0  0  0  0  0  0  0  0  0  0  0  0
   -4.2303    4.2762   -1.4618 H   0  0  0  0  0  0  0  0  0  0  0  0
   -3.4078    4.5400   -1.5166 O   0  0  0  0  0  0  0  0  0  0  0  0
   -2.9648    2.1945   -1.3870 C   0  0  0  0  0  0  0  0  0  0  0  0
   -4.4203    1.9087   -1.2072 C   0  0  0  0  0  0  0  0  0  0  0  0
   -4.8121    2.4092   -0.2784 H   0  0  0  0  0  0  0  0  0  0  0  0
   -5.0379    2.3112   -2.0359 H   0  0  0  0  0  0  0  0  0  0  0  0
   -4.5941    0.8122   -1.1454 H   0  0  0  0  0  0  0  0  0  0  0  0
    0.1152    0.1219    1.9531 H   0  0  0  0  0  0  0  0  0  0  0  0
   -0.5907    0.1334    4.3321 H   0  0  0  0  0  0  0  0  0  0  0  0
    2.9478   -2.1178    5.3225 H   0  0  0  0  0  0  0  0  0  0  0  0
    3.5818   -2.1017    2.9192 H   0  0  0  0  0  0  0  0  0  0  0  0
    0.6394   -2.4199    0.4461 H   0  0  0  0  0  0  0  0  0  0  0  0
    2.1274   -3.1784   -0.1581 H   0  0  0  0  0  0  0  0  0  0  0  0
    2.9546   -0.7637   -1.5312 H   0  0  0  0  0  0  0  0  0  0  0  0
    0.5041   -2.6419   -3.4446 H   0  0  0  0  0  0  0  0  0  0  0  0
    0.2501   -3.7050   -2.0692 H   0  0  0  0  0  0  0  0  0  0  0  0
    1.9202   -3.5120   -2.7124 H   0  0  0  0  0  0  0  0  0  0  0  0
    1.0933    0.6652   -1.4314 H   0  0  0  0  0  0  0  0  0  0  0  0
   -2.4586    0.1224   -1.4599 H   0  0  0  0  0  0  0  0  0  0  0  0
    0.7732    2.9191   -1.8339 H   0  0  0  0  0  0  0  0  0  0  0  0
   -0.8319    4.8060   -1.7827 H   0  0  0  0  0  0  0  0  0  0  0  0
  1  2  2  0
  1  7  1  0
  1 30  1  0
  2  3  1  0
  2 31  1  0
  3  4  1  0
  3  5  2  0
  5  6  1  0
  5 32  1  0
  6  7  2  0
  6 33  1  0
  7  8  1  0
  8  9  2  0
  8 10  2  0
  8 11  1  0
 11 12  1  0
 11 34  1  0
 11 35  1  0
 12 13  1  0
 12 14  1  0
 12 15  1  0
 13 36  1  0
 14 37  1  0
 14 38  1  0
 14 39  1  0
 15 16  2  0
 15 17  1  0
 17 18  1  0
 17 40  1  0
 18 19  2  0
 18 20  1  0
 19 25  1  0
 19 41  1  0
 20 21  2  0
 20 42  1  0
 21 22  1  0
 21 43  1  0
 22 24  1  0
 22 25  2  0
 23 24  1  0
 25 26  1  0
 26 27  1  0
 26 28  1  0
 26 29  1  0
M  END
>  <template_idx>  (13) 
1z95_ligand

>  <smiles>  (13) 
Cc1cc(NC(=O)C(C)(O)CS(=O)(=O)c2ccccc2)ccc1O

>  <qed>  (13) 
0.7150178833109528

$$$$
sample12
     RDKit          3D

 43 44  0  0  0  0  0  0  0  0999 V2000
    0.7305   -0.4372    2.5552 C   0  0  0  0  0  0  0  0  0  0  0  0
    0.2704   -0.4337    3.8618 C   0  0  0  0  0  0  0  0  0  0  0  0
    1.0433   -1.0151    4.8462 C   0  0  0  0  0  0  0  0  0  0  0  0
    0.7001   -1.0188    5.9035 H   0  0  0  0  0  0  0  0  0  0  0  0
    2.2469   -1.6054    4.5010 C   0  0  0  0  0  0  0  0  0  0  0  0
    2.6496   -1.6161    3.2003 C   0  0  0  0  0  0  0  0  0  0  0  0
    1.8996   -1.0484    2.1785 C   0  0  0  0  0  0  0  0  0  0  0  0
    2.3608   -1.0782    0.7831 C   0  0  0  0  0  0  0  0  0  0  0  0
    2.0926   -0.0845    0.3404 H   0  0  0  0  0  0  0  0  0  0  0  0
    3.4487   -1.1671    0.8062 H   0  0  0  0  0  0  0  0  0  0  0  0
    1.7691   -2.1760   -0.0704 C   0  0  0  0  0  0  0  0  0  0  0  0
    1.3501   -1.7560   -1.4868 C   0  0  0  0  0  0  0  0  0  0  0  0
    2.4280   -0.9817   -2.1948 C   0  0  0  0  0  0  0  0  0  0  0  0
    1.0408   -3.0365   -2.3748 C   0  0  0  0  0  0  0  0  0  0  0  0
    0.0858   -0.9445   -1.3299 C   0  0  0  0  0  0  0  0  0  0  0  0
   -0.9912   -1.4997   -0.9967 O   0  0  0  0  0  0  0  0  0  0  0  0
    0.1835    0.3675   -1.5579 N   0  0  0  0  0  0  0  0  0  0  0  0
   -0.7712    1.3648   -1.5410 C   0  0  0  0  0  0  0  0  0  0  0  0
   -2.0128    1.1251   -1.1108 C   0  0  0  0  0  0  0  0  0  0  0  0
   -0.3938    2.6451   -1.9814 C   0  0  0  0  0  0  0  0  0  0  0  0
   -1.3141    3.6549   -1.9944 C   0  0  0  0  0  0  0  0  0  0  0  0
   -2.6324    3.3976   -1.5484 C   0  0  0  0  0  0  0  0  0  0  0  0
   -3.5505    4.4040   -1.5759 C   0  0  0  0  0  0  0  0  0  0  0  0
   -4.2158    5.2388   -1.4956 N   0  0  0  0  0  0  0  0  0  0  0  0
   -2.9915    2.1162   -1.1339 C   0  0  0  0  0  0  0  0  0  0  0  0
   -4.3991    1.8239   -0.7838 C   0  0  0  0  0  0  0  0  0  0  0  0
   -4.9008    2.6924   -0.2687 H   0  0  0  0  0  0  0  0  0  0  0  0
   -4.9803    1.6344   -1.7569 H   0  0  0  0  0  0  0  0  0  0  0  0
   -4.4820    0.9468   -0.1812 H   0  0  0  0  0  0  0  0  0  0  0  0
   -0.0589    0.1044    1.6123 F   0  0  0  0  0  0  0  0  0  0  0  0
   -0.6713    0.0595    4.0947 H   0  0  0  0  0  0  0  0  0  0  0  0
    2.8549   -2.0833    5.2931 H   0  0  0  0  0  0  0  0  0  0  0  0
    3.5878   -2.0742    2.9345 H   0  0  0  0  0  0  0  0  0  0  0  0
    0.8453   -2.5101    0.4310 H   0  0  0  0  0  0  0  0  0  0  0  0
    2.4297   -3.0214   -0.1772 H   0  0  0  0  0  0  0  0  0  0  0  0
    3.1919   -0.3715   -2.7498 N   0  0  0  0  0  0  0  0  0  0  0  0
    0.5559   -2.7524   -3.3266 H   0  0  0  0  0  0  0  0  0  0  0  0
    0.3799   -3.6631   -1.8370 H   0  0  0  0  0  0  0  0  0  0  0  0
    1.9583   -3.5605   -2.5837 H   0  0  0  0  0  0  0  0  0  0  0  0
    1.0371    0.7406   -1.8387 H   0  0  0  0  0  0  0  0  0  0  0  0
   -2.3184    0.1171   -0.7772 H   0  0  0  0  0  0  0  0  0  0  0  0
    0.6011    2.8432   -2.3210 H   0  0  0  0  0  0  0  0  0  0  0  0
   -1.0577    4.6592   -2.3474 H   0  0  0  0  0  0  0  0  0  0  0  0
  1  2  2  0
  1  7  1  0
  1 30  1  0
  2  3  1  0
  2 31  1  0
  3  4  1  0
  3  5  2  0
  5  6  1  0
  5 32  1  0
  6  7  2  0
  6 33  1  0
  7  8  1  0
  8  9  1  0
  8 10  1  0
  8 11  1  0
 11 12  1  0
 11 34  1  0
 11 35  1  0
 12 13  1  0
 12 14  1  0
 12 15  1  0
 13 36  3  0
 14 37  1  0
 14 38  1  0
 14 39  1  0
 15 16  2  0
 15 17  1  0
 17 18  1  0
 17 40  1  0
 18 19  2  0
 18 20  1  0
 19 25  1  0
 19 41  1  0
 20 21  2  0
 20 42  1  0
 21 22  1  0
 21 43  1  0
 22 23  1  0
 22 25  2  0
 23 24  3  0
 25 26  1  0
 26 27  1  0
 26 28  1  0
 26 29  1  0
M  END
>  <template_idx>  (14) 
1z95_ligand

>  <smiles>  (14) 
Cc1cc(NC(=O)C(C)(C#N)CCc2ccccc2F)ccc1C#N

>  <qed>  (14) 
0.8931328358098796

$$$$
sample13
     RDKit          3D

 43 44  0  0  0  0  0  0  0  0999 V2000
    0.7695   -0.4476    2.6304 C   0  0  0  0  0  0  0  0  0  0  0  0
    0.2575   -0.4909    3.9066 C   0  0  0  0  0  0  0  0  0  0  0  0
    0.9688   -1.1612    4.8740 C   0  0  0  0  0  0  0  0  0  0  0  0
    0.5609   -1.2456    5.9134 H   0  0  0  0  0  0  0  0  0  0  0  0
    2.1857   -1.7390    4.5559 C   0  0  0  0  0  0  0  0  0  0  0  0
    2.6556   -1.6488    3.2697 C   0  0  0  0  0  0  0  0  0  0  0  0
    1.9333   -1.0152    2.3132 C   0  0  0  0  0  0  0  0  0  0  0  0
    2.6143   -0.9558    0.6822 S   0  0  0  0  0  0  0  0  0  0  0  0
    2.2948    0.3509    0.0942 O   0  0  0  0  0  0  0  0  0  0  0  0
    3.9590   -1.3118    0.6969 O   0  0  0  0  0  0  0  0  0  0  0  0
    1.6549   -2.2423   -0.1375 C   0  0  0  0  0  0  0  0  0  0  0  0
    1.2886   -1.7663   -1.5522 C   0  0  0  0  0  0  0  0  0  0  0  0
    2.3802   -1.0834   -2.0926 O   0  0  0  0  0  0  0  0  0  0  0  0
    0.9573   -2.9685   -2.4644 C   0  0  0  0  0  0  0  0  0  0  0  0
    0.0383   -0.8880   -1.3762 C   0  0  0  0  0  0  0  0  0  0  0  0
   -1.0116   -1.4444   -1.0145 O   0  0  0  0  0  0  0  0  0  0  0  0
    0.2311    0.4191   -1.5791 N   0  0  0  0  0  0  0  0  0  0  0  0
   -0.7123    1.4549   -1.5562 C   0  0  0  0  0  0  0  0  0  0  0  0
   -1.9817    1.1745   -1.2588 C   0  0  0  0  0  0  0  0  0  0  0  0
   -0.2719    2.7463   -1.8668 C   0  0  0  0  0  0  0  0  0  0  0  0
   -1.2276    3.7421   -1.9111 C   0  0  0  0  0  0  0  0  0  0  0  0
   -2.6126    3.4768   -1.6344 C   0  0  0  0  0  0  0  0  0  0  0  0
   -3.5007    4.4690   -1.7002 O   0  0  0  0  0  0  0  0  0  0  0  0
   -4.3038    4.2385   -1.4661 H   0  0  0  0  0  0  0  0  0  0  0  0
   -2.9575    2.1706   -1.2933 C   0  0  0  0  0  0  0  0  0  0  0  0
   -4.3668    1.8615   -0.9674 C   0  0  0  0  0  0  0  0  0  0  0  0
   -4.8015    2.4833   -0.1569 H   0  0  0  0  0  0  0  0  0  0  0  0
   -5.0185    2.0381   -1.8919 H   0  0  0  0  0  0  0  0  0  0  0  0
   -4.4587    0.7863   -0.6760 H   0  0  0  0  0  0  0  0  0  0  0  0
   -0.2319    0.3621    1.2928 Br  0  0  0  0  0  0  0  0  0  0  0  0
   -0.6932   -0.0366    4.2000 H   0  0  0  0  0  0  0  0  0  0  0  0
    2.7654   -2.2425    5.3595 H   0  0  0  0  0  0  0  0  0  0  0  0
    3.6299   -2.0562    3.0147 H   0  0  0  0  0  0  0  0  0  0  0  0
    0.7395   -2.3608    0.4537 H   0  0  0  0  0  0  0  0  0  0  0  0
    2.2496   -3.1523   -0.1520 H   0  0  0  0  0  0  0  0  0  0  0  0
    2.7944   -0.4377   -1.5477 H   0  0  0  0  0  0  0  0  0  0  0  0
    0.4463   -2.5815   -3.3759 H   0  0  0  0  0  0  0  0  0  0  0  0
    0.2946   -3.6970   -1.9792 H   0  0  0  0  0  0  0  0  0  0  0  0
    1.8635   -3.4872   -2.7193 H   0  0  0  0  0  0  0  0  0  0  0  0
    1.1609    0.7392   -1.6116 H   0  0  0  0  0  0  0  0  0  0  0  0
   -2.2915    0.1622   -1.0218 H   0  0  0  0  0  0  0  0  0  0  0  0
    0.7274    3.0001   -2.1086 H   0  0  0  0  0  0  0  0  0  0  0  0
   -0.9797    4.7850   -2.1454 H   0  0  0  0  0  0  0  0  0  0  0  0
  1  2  2  0
  1  7  1  0
  1 30  1  0
  2  3  1  0
  2 31  1  0
  3  4  1  0
  3  5  2  0
  5  6  1  0
  5 32  1  0
  6  7  2  0
  6 33  1  0
  7  8  1  0
  8  9  2  0
  8 10  2  0
  8 11  1  0
 11 12  1  0
 11 34  1  0
 11 35  1  0
 12 13  1  0
 12 14  1  0
 12 15  1  0
 13 36  1  0
 14 37  1  0
 14 38  1  0
 14 39  1  0
 15 16  2  0
 15 17  1  0
 17 18  1  0
 17 40  1  0
 18 19  2  0
 18 20  1  0
 19 25  1  0
 19 41  1  0
 20 21  2  0
 20 42  1  0
 21 22  1  0
 21 43  1  0
 22 23  1  0
 22 25  2  0
 23 24  1  0
 25 26  1  0
 26 27  1  0
 26 28  1  0
 26 29  1  0
M  END
>  <template_idx>  (15) 
1z95_ligand

>  <smiles>  (15) 
Cc1cc(NC(=O)C(C)(O)CS(=O)(=O)c2ccccc2Br)ccc1O

>  <qed>  (15) 
0.6357063330270744

$$$$
sample14
     RDKit          3D

 43 44  0  0  0  0  0  0  0  0999 V2000
    0.7058   -0.5818    2.5518 C   0  0  0  0  0  0  0  0  0  0  0  0
    0.2792   -0.5921    3.8814 C   0  0  0  0  0  0  0  0  0  0  0  0
    1.1421   -1.0688    4.8447 C   0  0  0  0  0  0  0  0  0  0  0  0
    0.6255   -1.1837    6.5074 Cl  0  0  0  0  0  0  0  0  0  0  0  0
    2.4215   -1.4957    4.5055 C   0  0  0  0  0  0  0  0  0  0  0  0
    2.8096   -1.4395    3.1883 C   0  0  0  0  0  0  0  0  0  0  0  0
    1.9574   -0.9931    2.2165 C   0  0  0  0  0  0  0  0  0  0  0  0
    2.5946   -0.8883    0.6111 S   0  0  0  0  0  0  0  0  0  0  0  0
    2.1094    0.3682    0.0438 O   0  0  0  0  0  0  0  0  0  0  0  0
    4.0264   -1.0827    0.5602 O   0  0  0  0  0  0  0  0  0  0  0  0
    1.8037   -2.2742   -0.2035 C   0  0  0  0  0  0  0  0  0  0  0  0
    1.2530   -1.7577   -1.5454 C   0  0  0  0  0  0  0  0  0  0  0  0
    2.2439   -1.0745   -2.2229 O   0  0  0  0  0  0  0  0  0  0  0  0
    0.7955   -2.9563   -2.4156 C   0  0  0  0  0  0  0  0  0  0  0  0
    0.0729   -0.8832   -1.2365 C   0  0  0  0  0  0  0  0  0  0  0  0
   -0.9242   -1.3733   -0.6665 O   0  0  0  0  0  0  0  0  0  0  0  0
    0.1744    0.3841   -1.5970 N   0  0  0  0  0  0  0  0  0  0  0  0
   -0.7879    1.3832   -1.6161 C   0  0  0  0  0  0  0  0  0  0  0  0
   -2.0244    1.1286   -1.1646 C   0  0  0  0  0  0  0  0  0  0  0  0
   -0.4048    2.6277   -2.1112 C   0  0  0  0  0  0  0  0  0  0  0  0
   -1.3653    3.6193   -2.1642 C   0  0  0  0  0  0  0  0  0  0  0  0
   -2.6840    3.3448   -1.6996 C   0  0  0  0  0  0  0  0  0  0  0  0
   -3.6491    4.3503   -1.7293 C   0  0  0  0  0  0  0  0  0  0  0  0
   -4.3822    5.1358   -1.7926 N   0  0  0  0  0  0  0  0  0  0  0  0
   -3.0080    2.0749   -1.2074 C   0  0  0  0  0  0  0  0  0  0  0  0
   -4.4159    1.7948   -0.7737 C   0  0  0  0  0  0  0  0  0  0  0  0
   -4.6594    2.3350    0.1805 H   0  0  0  0  0  0  0  0  0  0  0  0
   -5.1217    2.1889   -1.5191 H   0  0  0  0  0  0  0  0  0  0  0  0
   -4.5577    0.7282   -0.6192 H   0  0  0  0  0  0  0  0  0  0  0  0
   -0.0029   -0.2522    1.7875 H   0  0  0  0  0  0  0  0  0  0  0  0
   -0.7020   -0.2394    4.1825 H   0  0  0  0  0  0  0  0  0  0  0  0
    3.0988   -1.8614    5.2864 H   0  0  0  0  0  0  0  0  0  0  0  0
    3.8235   -1.7578    2.9300 H   0  0  0  0  0  0  0  0  0  0  0  0
    0.9908   -2.6195    0.4348 H   0  0  0  0  0  0  0  0  0  0  0  0
    2.5402   -3.0484   -0.3659 H   0  0  0  0  0  0  0  0  0  0  0  0
    2.9455   -0.6233   -1.6413 H   0  0  0  0  0  0  0  0  0  0  0  0
    0.2131   -2.5754   -3.2830 H   0  0  0  0  0  0  0  0  0  0  0  0
    0.1321   -3.6294   -1.8536 H   0  0  0  0  0  0  0  0  0  0  0  0
    1.6703   -3.5082   -2.7306 H   0  0  0  0  0  0  0  0  0  0  0  0
    1.0742    0.7107   -1.8280 H   0  0  0  0  0  0  0  0  0  0  0  0
   -2.2832    0.1379   -0.7472 H   0  0  0  0  0  0  0  0  0  0  0  0
    0.6047    2.8248   -2.4467 H   0  0  0  0  0  0  0  0  0  0  0  0
   -1.1353    4.6229   -2.5318 H   0  0  0  0  0  0  0  0  0  0  0  0
  1  2  2  0
  1  7  1  0
  1 30  1  0
  2  3  1  0
  2 31  1  0
  3  4  1  0
  3  5  2  0
  5  6  1  0
  5 32  1  0
  6  7  2  0
  6 33  1  0
  7  8  1  0
  8  9  2  0
  8 10  2  0
  8 11  1  0
 11 12  1  0
 11 34  1  0
 11 35  1  0
 12 13  1  0
 12 14  1  0
 12 15  1  0
 13 36  1  0
 14 37  1  0
 14 38  1  0
 14 39  1  0
 15 16  2  0
 15 17  1  0
 17 18  1  0
 17 40  1  0
 18 19  2  0
 18 20  1  0
 19 25  1  0
 19 41  1  0
 20 21  2  0
 20 42  1  0
 21 22  1  0
 21 43  1  0
 22 23  1  0
 22 25  2  0
 23 24  3  0
 25 26  1  0
 26 27  1  0
 26 28  1  0
 26 29  1  0
M  END
>  <template_idx>  (16) 
1z95_ligand

>  <smiles>  (16) 
Cc1cc(NC(=O)C(C)(O)CS(=O)(=O)c2ccc(Cl)cc2)ccc1C#N

>  <qed>  (16) 
0.8128792425372354

$$$$
sample15
     RDKit          3D

 43 44  0  0  0  0  0  0  0  0999 V2000
    0.8374   -0.2912    2.6024 C   0  0  0  0  0  0  0  0  0  0  0  0
    0.3285   -0.3830    3.8940 C   0  0  0  0  0  0  0  0  0  0  0  0
    0.9924   -1.1454    4.8421 C   0  0  0  0  0  0  0  0  0  0  0  0
    0.5849   -1.2569    5.8599 H   0  0  0  0  0  0  0  0  0  0  0  0
    2.1822   -1.7939    4.4878 C   0  0  0  0  0  0  0  0  0  0  0  0
    2.6540   -1.7148    3.2024 C   0  0  0  0  0  0  0  0  0  0  0  0
    1.9701   -0.9855    2.2721 C   0  0  0  0  0  0  0  0  0  0  0  0
    2.5963   -0.8708    0.6452 S   0  0  0  0  0  0  0  0  0  0  0  0
    2.0821    0.3473    0.0395 O   0  0  0  0  0  0  0  0  0  0  0  0
    3.9760   -1.0767    0.6626 O   0  0  0  0  0  0  0  0  0  0  0  0
    1.8130   -2.2932   -0.1514 C   0  0  0  0  0  0  0  0  0  0  0  0
    1.2395   -1.7635   -1.4934 C   0  0  0  0  0  0  0  0  0  0  0  0
    2.0006   -1.1989   -1.9737 H   0  0  0  0  0  0  0  0  0  0  0  0
    0.8226   -2.9707   -2.4037 C   0  0  0  0  0  0  0  0  0  0  0  0
    0.0705   -0.8603   -1.2541 C   0  0  0  0  0  0  0  0  0  0  0  0
   -0.8652   -1.2157   -0.5465 O   0  0  0  0  0  0  0  0  0  0  0  0
    0.2013    0.3099   -1.8989 N   0  0  0  0  0  0  0  0  0  0  0  0
   -0.7451    1.3003   -1.8188 C   0  0  0  0  0  0  0  0  0  0  0  0
   -1.9987    0.9515   -1.5455 C   0  0  0  0  0  0  0  0  0  0  0  0
   -0.3078    2.5818   -2.0173 C   0  0  0  0  0  0  0  0  0  0  0  0
   -1.2191    3.5590   -1.8219 C   0  0  0  0  0  0  0  0  0  0  0  0
   -2.5551    3.2552   -1.4380 C   0  0  0  0  0  0  0  0  0  0  0  0
   -3.9514    5.1487   -0.8730 N   0  0  0  0  0  0  0  0  0  0  0  0
   -3.3847    4.2859   -1.1665 C   0  0  0  0  0  0  0  0  0  0  0  0
   -2.9635    1.9336   -1.3361 C   0  0  0  0  0  0  0  0  0  0  0  0
   -4.3637    1.6053   -0.9553 C   0  0  0  0  0  0  0  0  0  0  0  0
   -4.6776    2.2295   -0.1162 H   0  0  0  0  0  0  0  0  0  0  0  0
   -5.0105    1.9001   -1.7820 H   0  0  0  0  0  0  0  0  0  0  0  0
   -4.4727    0.5488   -0.7154 H   0  0  0  0  0  0  0  0  0  0  0  0
    0.3458    0.3614    1.8725 H   0  0  0  0  0  0  0  0  0  0  0  0
   -0.5833    0.1522    4.1504 H   0  0  0  0  0  0  0  0  0  0  0  0
    2.7279   -2.3718    5.2563 H   0  0  0  0  0  0  0  0  0  0  0  0
    3.5765   -2.1972    2.9132 H   0  0  0  0  0  0  0  0  0  0  0  0
    1.0496   -2.6095    0.5159 H   0  0  0  0  0  0  0  0  0  0  0  0
    2.5122   -3.0657   -0.3336 H   0  0  0  0  0  0  0  0  0  0  0  0
    1.6324    1.1900   -1.5496 H   0  0  0  0  0  0  0  0  0  0  0  0
    0.1746   -2.5696   -3.2203 H   0  0  0  0  0  0  0  0  0  0  0  0
    0.2544   -3.6861   -1.8449 H   0  0  0  0  0  0  0  0  0  0  0  0
    1.7084   -3.4847   -2.7645 H   0  0  0  0  0  0  0  0  0  0  0  0
    1.3694    0.7261   -2.3677 O   0  0  0  0  0  0  0  0  0  0  0  0
   -2.3611   -0.0710   -1.5579 H   0  0  0  0  0  0  0  0  0  0  0  0
    0.6997    2.8820   -2.3419 H   0  0  0  0  0  0  0  0  0  0  0  0
   -0.9430    4.6074   -1.9281 H   0  0  0  0  0  0  0  0  0  0  0  0
  1  2  2  0
  1  7  1  0
  1 30  1  0
  2  3  1  0
  2 31  1  0
  3  4  1  0
  3  5  2  0
  5  6  1  0
  5 32  1  0
  6  7  2  0
  6 33  1  0
  7  8  1  0
  8  9  2  0
  8 10  2  0
  8 11  1  0
 11 12  1  0
 11 34  1  0
 11 35  1  0
 12 13  1  0
 12 14  1  0
 12 15  1  0
 14 37  1  0
 14 38  1  0
 14 39  1  0
 15 16  2  0
 15 17  1  0
 17 18  1  0
 17 40  1  0
 18 19  2  0
 18 20  1  0
 19 25  1  0
 19 41  1  0
 20 21  2  0
 20 42  1  0
 21 22  1  0
 21 43  1  0
 22 24  1  0
 22 25  2  0
 23 24  3  0
 25 26  1  0
 26 27  1  0
 26 28  1  0
 26 29  1  0
 36 40  1  0
M  END
>  <template_idx>  (17) 
1z95_ligand

>  <smiles>  (17) 
Cc1cc(N(O)C(=O)C(C)CS(=O)(=O)c2ccccc2)ccc1C#N

>  <qed>  (17) 
0.654365602026187

$$$$
sample16
     RDKit          3D

 43 44  0  0  0  0  0  0  0  0999 V2000
    0.5987   -0.3876    2.5325 C   0  0  0  0  0  0  0  0  0  0  0  0
    0.1523   -0.3859    3.8227 C   0  0  0  0  0  0  0  0  0  0  0  0
    0.9487   -0.9555    4.8161 C   0  0  0  0  0  0  0  0  0  0  0  0
    0.5671   -1.0551    5.8405 H   0  0  0  0  0  0  0  0  0  0  0  0
    2.1852   -1.4700    4.4718 C   0  0  0  0  0  0  0  0  0  0  0  0
    2.6350   -1.4391    3.1805 C   0  0  0  0  0  0  0  0  0  0  0  0
    1.8198   -0.9324    2.1656 C   0  0  0  0  0  0  0  0  0  0  0  0
    2.2589   -0.9986    0.7552 C   0  0  0  0  0  0  0  0  0  0  0  0
    1.9687   -0.0268    0.2995 H   0  0  0  0  0  0  0  0  0  0  0  0
    3.3510   -1.0753    0.6940 H   0  0  0  0  0  0  0  0  0  0  0  0
    1.5938   -2.1592    0.0129 C   0  0  0  0  0  0  0  0  0  0  0  0
    1.2775   -1.8602   -1.4541 C   0  0  0  0  0  0  0  0  0  0  0  0
    2.3597   -1.1127   -2.0272 C   0  0  0  0  0  0  0  0  0  0  0  0
    1.0152   -3.1589   -2.3235 C   0  0  0  0  0  0  0  0  0  0  0  0
    0.0172   -1.0018   -1.4950 C   0  0  0  0  0  0  0  0  0  0  0  0
   -1.0885   -1.4996   -1.3270 O   0  0  0  0  0  0  0  0  0  0  0  0
    0.2928    0.3058   -1.7158 N   0  0  0  0  0  0  0  0  0  0  0  0
   -0.6439    1.2997   -1.6262 C   0  0  0  0  0  0  0  0  0  0  0  0
   -1.8606    1.1217   -1.0475 C   0  0  0  0  0  0  0  0  0  0  0  0
   -0.2875    2.5541   -2.1558 C   0  0  0  0  0  0  0  0  0  0  0  0
   -1.2069    3.5583   -2.1636 C   0  0  0  0  0  0  0  0  0  0  0  0
   -2.5031    3.3331   -1.6258 C   0  0  0  0  0  0  0  0  0  0  0  0
   -3.4467    4.3396   -1.6627 C   0  0  0  0  0  0  0  0  0  0  0  0
   -4.1672    5.1371   -1.7123 N   0  0  0  0  0  0  0  0  0  0  0  0
   -2.8279    2.1052   -1.0698 C   0  0  0  0  0  0  0  0  0  0  0  0
   -4.2000    1.9011   -0.5361 C   0  0  0  0  0  0  0  0  0  0  0  0
   -4.3805    2.4247    0.4180 H   0  0  0  0  0  0  0  0  0  0  0  0
   -4.9311    2.3397   -1.2784 H   0  0  0  0  0  0  0  0  0  0  0  0
   -4.3716    0.8365   -0.4017 H   0  0  0  0  0  0  0  0  0  0  0  0
   -0.0536    0.0491    1.7699 H   0  0  0  0  0  0  0  0  0  0  0  0
   -0.8140    0.0471    4.0586 H   0  0  0  0  0  0  0  0  0  0  0  0
    2.8064   -1.9429    5.2575 H   0  0  0  0  0  0  0  0  0  0  0  0
    3.6244   -1.7967    2.9614 H   0  0  0  0  0  0  0  0  0  0  0  0
    0.6137   -2.3512    0.5241 H   0  0  0  0  0  0  0  0  0  0  0  0
    2.1904   -3.0446    0.0346 H   0  0  0  0  0  0  0  0  0  0  0  0
    2.9177   -0.3499   -2.5642 N   0  0  0  0  0  0  0  0  0  0  0  0
    0.5532   -2.8865   -3.2920 H   0  0  0  0  0  0  0  0  0  0  0  0
    0.3296   -3.8141   -1.7904 H   0  0  0  0  0  0  0  0  0  0  0  0
    1.9536   -3.6723   -2.4971 H   0  0  0  0  0  0  0  0  0  0  0  0
    1.1811    0.6231   -2.1025 H   0  0  0  0  0  0  0  0  0  0  0  0
   -2.1354    0.1802   -0.5527 H   0  0  0  0  0  0  0  0  0  0  0  0
    0.6886    2.7100   -2.6003 H   0  0  0  0  0  0  0  0  0  0  0  0
   -0.9818    4.5106   -2.5934 H   0  0  0  0  0  0  0  0  0  0  0  0
  1  2  2  0
  1  7  1  0
  1 30  1  0
  2  3  1  0
  2 31  1  0
  3  4  1  0
  3  5  2  0
  5  6  1  0
  5 32  1  0
  6  7  2  0
  6 33  1  0
  7  8  1  0
  8  9  1  0
  8 10  1  0
  8 11  1  0
 11 12  1  0
 11 34  1  0
 11 35  1  0
 12 13  1  0
 12 14  1  0
 12 15  1  0
 13 36  2  0
 14 37  1  0
 14 38  1  0
 14 39  1  0
 15 16  2  0
 15 17  1  0
 17 18  1  0
 17 40  1  0
 18 19  2  0
 18 20  1  0
 19 25  1  0
 19 41  1  0
 20 21  2  0
 20 42  1  0
 21 22  1  0
 21 43  1  0
 22 23  1  0
 22 25  2  0
 23 24  3  0
 25 26  1  0
 26 27  1  0
 26 28  1  0
 26 29  1  0
M  END
>  <template_idx>  (18) 
1z95_ligand

>  <smiles>  (18) 
Cc1cc(NC(=O)C(C)(C=N)CCc2ccccc2)ccc1C#N

>  <qed>  (18) 
0.7865674212479593

$$$$
sample17
     RDKit          3D

 43 45  0  0  0  0  0  0  0  0999 V2000
    0.5465   -0.7710    2.6214 C   0  0  0  0  0  0  0  0  0  0  0  0
    0.1581   -0.8851    3.9430 C   0  0  0  0  0  0  0  0  0  0  0  0
    1.0890   -1.2827    4.8978 C   0  0  0  0  0  0  0  0  0  0  0  0
    0.7845   -1.4398    5.9580 H   0  0  0  0  0  0  0  0  0  0  0  0
    2.3918   -1.5487    4.4866 C   0  0  0  0  0  0  0  0  0  0  0  0
    2.7526   -1.4326    3.1667 C   0  0  0  0  0  0  0  0  0  0  0  0
    1.8411   -1.0530    2.1943 C   0  0  0  0  0  0  0  0  0  0  0  0
    2.2856   -0.9588    0.7870 C   0  0  0  0  0  0  0  0  0  0  0  0
    1.8966    0.0035    0.4224 H   0  0  0  0  0  0  0  0  0  0  0  0
    3.3934   -0.8565    0.7322 H   0  0  0  0  0  0  0  0  0  0  0  0
    1.8259   -2.1143   -0.0983 C   0  0  0  0  0  0  0  0  0  0  0  0
    1.2113   -1.6467   -1.4144 C   0  0  0  0  0  0  0  0  0  0  0  0
    2.0836   -0.6556   -2.0840 C   0  0  0  0  0  0  0  0  0  0  0  0
    0.8540   -2.8543   -2.3570 C   0  0  0  0  0  0  0  0  0  0  0  0
   -0.0304   -0.8716   -1.1050 N   0  0  0  0  0  0  0  0  0  0  0  0
   -0.9247   -1.2355   -0.9511 H   0  0  0  0  0  0  0  0  0  0  0  0
    0.2379    0.4001   -1.5249 C   0  0  0  0  0  0  0  0  0  0  0  0
   -0.7706    1.4062   -1.5387 C   0  0  0  0  0  0  0  0  0  0  0  0
   -2.0527    1.0985   -1.2066 C   0  0  0  0  0  0  0  0  0  0  0  0
   -0.4047    2.6820   -1.8828 C   0  0  0  0  0  0  0  0  0  0  0  0
   -1.3616    3.6552   -1.9426 C   0  0  0  0  0  0  0  0  0  0  0  0
   -2.7111    3.3931   -1.6009 C   0  0  0  0  0  0  0  0  0  0  0  0
   -3.5392    4.4074   -1.6685 O   0  0  0  0  0  0  0  0  0  0  0  0
   -3.0773    5.1754   -1.8791 H   0  0  0  0  0  0  0  0  0  0  0  0
   -3.0542    2.0849   -1.2349 C   0  0  0  0  0  0  0  0  0  0  0  0
   -4.4562    1.8304   -0.8673 C   0  0  0  0  0  0  0  0  0  0  0  0
   -4.8114    2.5707   -0.1263 H   0  0  0  0  0  0  0  0  0  0  0  0
   -5.0886    2.0479   -1.7578 H   0  0  0  0  0  0  0  0  0  0  0  0
   -4.6436    0.8259   -0.5350 H   0  0  0  0  0  0  0  0  0  0  0  0
   -0.1991   -0.4570    1.9334 H   0  0  0  0  0  0  0  0  0  0  0  0
   -0.8679   -0.6795    4.2426 H   0  0  0  0  0  0  0  0  0  0  0  0
    3.1288   -1.9033    5.2480 H   0  0  0  0  0  0  0  0  0  0  0  0
    3.7725   -1.6697    2.9079 H   0  0  0  0  0  0  0  0  0  0  0  0
    1.0672   -2.6973    0.4387 H   0  0  0  0  0  0  0  0  0  0  0  0
    2.6244   -2.7628   -0.3800 H   0  0  0  0  0  0  0  0  0  0  0  0
    3.1266   -0.7854   -2.6841 O   0  0  0  0  0  0  0  0  0  0  0  0
    0.1907   -2.5014   -3.1420 H   0  0  0  0  0  0  0  0  0  0  0  0
    0.3965   -3.6497   -1.8180 H   0  0  0  0  0  0  0  0  0  0  0  0
    1.7962   -3.2430   -2.8192 H   0  0  0  0  0  0  0  0  0  0  0  0
    1.4611    0.6211   -1.9702 N   0  0  0  0  0  0  0  0  0  0  0  0
   -2.3885    0.0993   -0.9654 H   0  0  0  0  0  0  0  0  0  0  0  0
    0.5879    2.9560   -2.1723 H   0  0  0  0  0  0  0  0  0  0  0  0
   -1.1219    4.6975   -2.2536 H   0  0  0  0  0  0  0  0  0  0  0  0
  1  2  2  0
  1  7  1  0
  1 30  1  0
  2  3  1  0
  2 31  1  0
  3  4  1  0
  3  5  2  0
  5  6  1  0
  5 32  1  0
  6  7  2  0
  6 33  1  0
  7  8  1  0
  8  9  1  0
  8 10  1  0
  8 11  1  0
 11 12  1  0
 11 34  1  0
 11 35  1  0
 12 13  1  0
 12 14  1  0
 12 15  1  0
 13 36  2  0
 13 40  1  0
 14 37  1  0
 14 38  1  0
 14 39  1  0
 15 16  1  0
 15 17  1  0
 17 18  1  0
 17 40  2  0
 18 19  2  0
 18 20  1  0
 19 25  1  0
 19 41  1  0
 20 21  2  0
 20 42  1  0
 21 22  1  0
 21 43  1  0
 22 23  1  0
 22 25  2  0
 23 24  1  0
 25 26  1  0
 26 27  1  0
 26 28  1  0
 26 29  1  0
M  END
>  <template_idx>  (19) 
1z95_ligand

>  <smiles>  (19) 
Cc1cc(C2=NC(=O)C(C)(CCc3ccccc3)N2)ccc1O

>  <qed>  (19) 
0.9125746547858049

$$$$
sample18
     RDKit          3D

 43 44  0  0  0  0  0  0  0  0999 V2000
    0.5963   -0.3549    2.3409 C   0  0  0  0  0  0  0  0  0  0  0  0
    0.0409   -0.3677    3.5935 C   0  0  0  0  0  0  0  0  0  0  0  0
    0.6925   -1.0704    4.6307 C   0  0  0  0  0  0  0  0  0  0  0  0
    0.2319   -1.1473    5.6379 H   0  0  0  0  0  0  0  0  0  0  0  0
    1.8986   -1.7085    4.3862 C   0  0  0  0  0  0  0  0  0  0  0  0
    2.4368   -1.6739    3.1320 C   0  0  0  0  0  0  0  0  0  0  0  0
    1.7476   -1.0358    2.1211 C   0  0  0  0  0  0  0  0  0  0  0  0
    2.5387   -0.9892    0.5623 S   0  0  0  0  0  0  0  0  0  0  0  0
    2.1418    0.2831   -0.0482 O   0  0  0  0  0  0  0  0  0  0  0  0
    3.9588   -1.1760    0.7015 O   0  0  0  0  0  0  0  0  0  0  0  0
    1.8389   -2.4035   -0.2900 C   0  0  0  0  0  0  0  0  0  0  0  0
    1.2547   -1.8353   -1.6136 C   0  0  0  0  0  0  0  0  0  0  0  0
    2.2574   -1.1291   -2.2505 O   0  0  0  0  0  0  0  0  0  0  0  0
    0.7373   -2.9699   -2.5314 C   0  0  0  0  0  0  0  0  0  0  0  0
    0.1491   -0.8855   -1.2144 C   0  0  0  0  0  0  0  0  0  0  0  0
   -0.6874   -1.2365   -0.3689 O   0  0  0  0  0  0  0  0  0  0  0  0
    0.2028    0.2800   -1.8262 N   0  0  0  0  0  0  0  0  0  0  0  0
   -0.6464    1.3301   -1.6531 C   0  0  0  0  0  0  0  0  0  0  0  0
   -1.8270    1.1101   -1.1012 C   0  0  0  0  0  0  0  0  0  0  0  0
   -0.2107    2.6040   -2.0320 C   0  0  0  0  0  0  0  0  0  0  0  0
   -1.0820    3.6563   -1.8629 C   0  0  0  0  0  0  0  0  0  0  0  0
   -2.3736    3.4331   -1.3084 C   0  0  0  0  0  0  0  0  0  0  0  0
   -3.2578    4.4686   -1.1313 C   0  0  0  0  0  0  0  0  0  0  0  0
   -3.9430    5.2466   -0.9657 N   0  0  0  0  0  0  0  0  0  0  0  0
   -2.7436    2.1338   -0.9536 C   0  0  0  0  0  0  0  0  0  0  0  0
   -4.0979    1.8633   -0.4365 C   0  0  0  0  0  0  0  0  0  0  0  0
   -4.4673    2.6848    0.2330 H   0  0  0  0  0  0  0  0  0  0  0  0
   -4.8069    1.8530   -1.2886 H   0  0  0  0  0  0  0  0  0  0  0  0
   -4.1577    0.8660    0.0305 H   0  0  0  0  0  0  0  0  0  0  0  0
    0.0730    0.1914    1.5204 H   0  0  0  0  0  0  0  0  0  0  0  0
   -0.9167    0.1143    3.7793 H   0  0  0  0  0  0  0  0  0  0  0  0
    2.3974   -2.2657    5.1965 H   0  0  0  0  0  0  0  0  0  0  0  0
    3.4100   -2.1166    2.9482 H   0  0  0  0  0  0  0  0  0  0  0  0
    1.0639   -2.7969    0.3427 H   0  0  0  0  0  0  0  0  0  0  0  0
    2.5971   -3.1095   -0.5271 H   0  0  0  0  0  0  0  0  0  0  0  0
    2.4020   -0.2617   -1.7042 H   0  0  0  0  0  0  0  0  0  0  0  0
    0.3078   -2.5227   -3.4232 H   0  0  0  0  0  0  0  0  0  0  0  0
   -0.0323   -3.5326   -2.0014 H   0  0  0  0  0  0  0  0  0  0  0  0
    1.5541   -3.6312   -2.7785 H   0  0  0  0  0  0  0  0  0  0  0  0
    0.9063    0.5385   -2.4808 H   0  0  0  0  0  0  0  0  0  0  0  0
   -2.1390    0.1014   -0.7782 H   0  0  0  0  0  0  0  0  0  0  0  0
    0.7683    2.7989   -2.4479 H   0  0  0  0  0  0  0  0  0  0  0  0
   -0.8150    4.6631   -2.1390 H   0  0  0  0  0  0  0  0  0  0  0  0
  1  2  2  0
  1  7  1  0
  1 30  1  0
  2  3  1  0
  2 31  1  0
  3  4  1  0
  3  5  2  0
  5  6  1  0
  5 32  1  0
  6  7  2  0
  6 33  1  0
  7  8  1  0
  8  9  2  0
  8 10  2  0
  8 11  1  0
 11 12  1  0
 11 34  1  0
 11 35  1  0
 12 13  1  0
 12 14  1  0
 12 15  1  0
 13 36  1  0
 14 37  1  0
 14 38  1  0
 14 39  1  0
 15 16  2  0
 15 17  1  0
 17 18  1  0
 17 40  1  0
 18 19  2  0
 18 20  1  0
 19 25  1  0
 19 41  1  0
 20 21  2  0
 20 42  1  0
 21 22  1  0
 21 43  1  0
 22 23  1  0
 22 25  2  0
 23 24  3  0
 25 26  1  0
 26 27  1  0
 26 28  1  0
 26 29  1  0
M  END
>  <template_idx>  (20) 
1z95_ligand

>  <smiles>  (20) 
Cc1cc(NC(=O)C(C)(O)CS(=O)(=O)c2ccccc2)ccc1C#N

>  <qed>  (20) 
0.8502432192329245

$$$$
sample19
     RDKit          3D

 43 44  0  0  0  0  0  0  0  0999 V2000
    0.5221   -0.2338    2.5414 C   0  0  0  0  0  0  0  0  0  0  0  0
    0.0222   -0.8353    3.6670 C   0  0  0  0  0  0  0  0  0  0  0  0
    0.8655   -1.4878    4.5654 C   0  0  0  0  0  0  0  0  0  0  0  0
    0.4657   -1.9266    5.5020 H   0  0  0  0  0  0  0  0  0  0  0  0
    2.2166   -1.5618    4.3093 C   0  0  0  0  0  0  0  0  0  0  0  0
    2.7042   -0.9522    3.1606 C   0  0  0  0  0  0  0  0  0  0  0  0
    1.8585   -0.2770    2.3034 C   0  0  0  0  0  0  0  0  0  0  0  0
    2.9443   -0.6163    0.0419 S   0  0  0  0  0  0  0  0  0  0  0  0
    2.3738    0.3900    1.2455 O   0  0  0  0  0  0  0  0  0  0  0  0
    4.1706   -1.1166    0.4773 O   0  0  0  0  0  0  0  0  0  0  0  0
    1.8045   -2.0617   -0.2605 C   0  0  0  0  0  0  0  0  0  0  0  0
    1.2071   -1.8615   -1.6391 C   0  0  0  0  0  0  0  0  0  0  0  0
    1.8793   -1.3263   -2.3189 H   0  0  0  0  0  0  0  0  0  0  0  0
    0.8527   -3.2162   -2.3124 C   0  0  0  0  0  0  0  0  0  0  0  0
   -0.0471   -1.0007   -1.3939 C   0  0  0  0  0  0  0  0  0  0  0  0
   -1.1131   -1.5427   -1.1245 O   0  0  0  0  0  0  0  0  0  0  0  0
    0.2153    0.3027   -1.4428 N   0  0  0  0  0  0  0  0  0  0  0  0
   -0.7382    1.3186   -1.5032 C   0  0  0  0  0  0  0  0  0  0  0  0
   -1.9657    1.0921   -1.0042 C   0  0  0  0  0  0  0  0  0  0  0  0
   -0.3811    2.5501   -2.0778 C   0  0  0  0  0  0  0  0  0  0  0  0
   -1.3807    3.5018   -2.1634 C   0  0  0  0  0  0  0  0  0  0  0  0
   -2.6982    3.2801   -1.6997 C   0  0  0  0  0  0  0  0  0  0  0  0
   -3.5953    4.2386   -1.8218 O   0  0  0  0  0  0  0  0  0  0  0  0
   -3.1811    4.9792   -2.1344 H   0  0  0  0  0  0  0  0  0  0  0  0
   -2.9739    2.0348   -1.1286 C   0  0  0  0  0  0  0  0  0  0  0  0
   -4.3377    1.7954   -0.6458 C   0  0  0  0  0  0  0  0  0  0  0  0
   -4.5434    2.4272    0.2103 H   0  0  0  0  0  0  0  0  0  0  0  0
   -5.0733    2.0969   -1.4399 H   0  0  0  0  0  0  0  0  0  0  0  0
   -4.4999    0.7506   -0.4312 H   0  0  0  0  0  0  0  0  0  0  0  0
   -0.1426    0.3207    1.8676 H   0  0  0  0  0  0  0  0  0  0  0  0
   -1.0600   -0.7394    3.8681 H   0  0  0  0  0  0  0  0  0  0  0  0
    2.9017   -2.1029    5.0054 H   0  0  0  0  0  0  0  0  0  0  0  0
    3.7447   -0.9609    2.9211 H   0  0  0  0  0  0  0  0  0  0  0  0
    1.0558   -1.9206    0.5419 H   0  0  0  0  0  0  0  0  0  0  0  0
    2.3161   -2.9629   -0.1727 H   0  0  0  0  0  0  0  0  0  0  0  0
    2.9527    0.2164   -1.1237 O   0  0  0  0  0  0  0  0  0  0  0  0
    0.2087   -3.0313   -3.1678 H   0  0  0  0  0  0  0  0  0  0  0  0
    0.3256   -3.8677   -1.6007 H   0  0  0  0  0  0  0  0  0  0  0  0
    1.7490   -3.7170   -2.6371 H   0  0  0  0  0  0  0  0  0  0  0  0
    1.1655    0.6164   -1.4339 H   0  0  0  0  0  0  0  0  0  0  0  0
   -2.2120    0.1542   -0.4870 H   0  0  0  0  0  0  0  0  0  0  0  0
    0.5757    2.7551   -2.4621 H   0  0  0  0  0  0  0  0  0  0  0  0
   -1.1545    4.4983   -2.6013 H   0  0  0  0  0  0  0  0  0  0  0  0
  1  2  2  0
  1  7  1  0
  1 30  1  0
  2  3  1  0
  2 31  1  0
  3  4  1  0
  3  5  2  0
  5  6  1  0
  5 32  1  0
  6  7  2  0
  6 33  1  0
  7  9  1  0
  8  9  1  0
  8 10  2  0
  8 11  1  0
  8 36  2  0
 11 12  1  0
 11 34  1  0
 11 35  1  0
 12 13  1  0
 12 14  1  0
 12 15  1  0
 14 37  1  0
 14 38  1  0
 14 39  1  0
 15 16  2  0
 15 17  1  0
 17 18  1  0
 17 40  1  0
 18 19  2  0
 18 20  1  0
 19 25  1  0
 19 41  1  0
 20 21  2  0
 20 42  1  0
 21 22  1  0
 21 43  1  0
 22 23  1  0
 22 25  2  0
 23 24  1  0
 25 26  1  0
 26 27  1  0
 26 28  1  0
 26 29  1  0
M  END
>  <template_idx>  (21) 
1z95_ligand

>  <smiles>  (21) 
Cc1cc(NC(=O)C(C)CS(=O)(=O)Oc2ccccc2)ccc1O

>  <qed>  (21) 
0.6177410562320891

$$$$
sample20
     RDKit          3D

 43 44  0  0  0  0  0  0  0  0999 V2000
    0.7781   -0.2882    2.1740 C   0  0  0  0  0  0  0  0  0  0  0  0
    0.3091   -0.2001    3.4883 C   0  0  0  0  0  0  0  0  0  0  0  0
    1.0186   -0.7860    4.5271 C   0  0  0  0  0  0  0  0  0  0  0  0
    0.6306   -0.8024    5.5529 H   0  0  0  0  0  0  0  0  0  0  0  0
    2.1856   -1.4401    4.2686 C   0  0  0  0  0  0  0  0  0  0  0  0
    2.6161   -1.5044    2.9451 C   0  0  0  0  0  0  0  0  0  0  0  0
    1.9344   -0.9543    1.8845 C   0  0  0  0  0  0  0  0  0  0  0  0
    2.5508   -1.1164    0.5488 C   0  0  0  0  0  0  0  0  0  0  0  0
    2.4867    0.1705   -0.0873 O   0  0  0  0  0  0  0  0  0  0  0  0
    3.6408   -1.2992    0.6130 H   0  0  0  0  0  0  0  0  0  0  0  0
    1.9231   -2.2856   -0.2225 C   0  0  0  0  0  0  0  0  0  0  0  0
    1.2736   -1.8469   -1.5243 C   0  0  0  0  0  0  0  0  0  0  0  0
    1.9980   -1.2834   -2.1087 H   0  0  0  0  0  0  0  0  0  0  0  0
    0.8390   -3.0986   -2.3829 C   0  0  0  0  0  0  0  0  0  0  0  0
    0.0502   -1.0071   -1.2416 C   0  0  0  0  0  0  0  0  0  0  0  0
   -1.0059   -1.5542   -0.8051 O   0  0  0  0  0  0  0  0  0  0  0  0
    0.2303    0.2899   -1.4359 N   0  0  0  0  0  0  0  0  0  0  0  0
   -0.7012    1.2721   -1.4572 C   0  0  0  0  0  0  0  0  0  0  0  0
   -1.9945    1.0004   -1.2475 C   0  0  0  0  0  0  0  0  0  0  0  0
   -0.2586    2.5747   -1.6983 C   0  0  0  0  0  0  0  0  0  0  0  0
   -1.1658    3.5943   -1.6663 C   0  0  0  0  0  0  0  0  0  0  0  0
   -2.5327    3.3266   -1.3731 C   0  0  0  0  0  0  0  0  0  0  0  0
   -3.4146    4.3722   -1.2477 C   0  0  0  0  0  0  0  0  0  0  0  0
   -4.0544    5.2132   -1.0260 N   0  0  0  0  0  0  0  0  0  0  0  0
   -2.9458    2.0131   -1.2012 C   0  0  0  0  0  0  0  0  0  0  0  0
   -4.3876    1.7081   -1.0282 C   0  0  0  0  0  0  0  0  0  0  0  0
   -4.9826    2.6451   -0.6648 H   0  0  0  0  0  0  0  0  0  0  0  0
   -4.7897    1.3490   -1.9743 H   0  0  0  0  0  0  0  0  0  0  0  0
   -4.6066    0.9016   -0.3719 H   0  0  0  0  0  0  0  0  0  0  0  0
    0.0891    0.1527    1.4362 H   0  0  0  0  0  0  0  0  0  0  0  0
   -0.6295    0.2971    3.6754 H   0  0  0  0  0  0  0  0  0  0  0  0
    2.7284   -1.9552    5.0578 H   0  0  0  0  0  0  0  0  0  0  0  0
    3.7332   -2.1219    2.7294 F   0  0  0  0  0  0  0  0  0  0  0  0
    1.1164   -2.7200    0.3931 H   0  0  0  0  0  0  0  0  0  0  0  0
    2.6436   -3.0498   -0.4704 H   0  0  0  0  0  0  0  0  0  0  0  0
    1.7798    0.5991    0.1877 H   0  0  0  0  0  0  0  0  0  0  0  0
    0.2952   -2.7852   -3.2910 H   0  0  0  0  0  0  0  0  0  0  0  0
    0.1627   -3.6946   -1.7667 H   0  0  0  0  0  0  0  0  0  0  0  0
    1.7086   -3.6908   -2.6226 H   0  0  0  0  0  0  0  0  0  0  0  0
    1.1839    0.6345   -1.5674 H   0  0  0  0  0  0  0  0  0  0  0  0
   -2.3271   -0.0367   -1.1306 H   0  0  0  0  0  0  0  0  0  0  0  0
    0.7767    2.7940   -1.9790 H   0  0  0  0  0  0  0  0  0  0  0  0
   -0.8862    4.6127   -1.8895 H   0  0  0  0  0  0  0  0  0  0  0  0
  1  2  2  0
  1  7  1  0
  1 30  1  0
  2  3  1  0
  2 31  1  0
  3  4  1  0
  3  5  2  0
  5  6  1  0
  5 32  1  0
  6  7  2  0
  6 33  1  0
  7  8  1  0
  8  9  1  0
  8 10  1  0
  8 11  1  0
  9 36  1  0
 11 12  1  0
 11 34  1  0
 11 35  1  0
 12 13  1  0
 12 14  1  0
 12 15  1  0
 14 37  1  0
 14 38  1  0
 14 39  1  0
 15 16  2  0
 15 17  1  0
 17 18  1  0
 17 40  1  0
 18 19  2  0
 18 20  1  0
 19 25  1  0
 19 41  1  0
 20 21  2  0
 20 42  1  0
 21 22  1  0
 21 43  1  0
 22 23  1  0
 22 25  2  0
 23 24  3  0
 25 26  1  0
 26 27  1  0
 26 28  1  0
 26 29  1  0
M  END
>  <template_idx>  (22) 
1z95_ligand

>  <smiles>  (22) 
Cc1cc(NC(=O)C(C)CC(O)c2ccccc2F)ccc1C#N

>  <qed>  (22) 
0.8795841442369222

$$$$
