template4w9c_ligand
     RDKit          3D

 55 57  0  0  0  0  0  0  0  0999 V2000
    0.3420   -0.2722    6.4105 C   0  0  0  0  0  0  0  0  0  0  0  0
   -0.2260   -0.3112    4.9895 C   0  0  0  0  0  0  0  0  0  0  0  0
   -1.6710   -0.8722    5.0965 C   0  0  0  0  0  0  0  0  0  0  0  0
    0.6330   -1.2122    4.0795 C   0  0  0  0  0  0  0  0  0  0  0  0
   -0.2340    1.1168    4.4925 C   0  0  0  0  0  0  0  0  0  0  0  0
   -0.7360    1.1438    3.0075 C   0  0  0  0  0  0  0  0  0  0  0  0
   -1.9400    0.9828    2.7845 O   0  0  0  0  0  0  0  0  0  0  0  0
    0.1640    1.4168    2.0145 N   0  0  0  0  0  0  0  0  0  0  0  0
    1.6290    1.7098    2.0805 C   0  0  0  0  0  0  0  0  0  0  0  0
    1.8970    2.6118    0.8755 C   0  0  0  0  0  0  0  0  0  0  0  0
    1.5470    3.9718    1.1825 O   0  0  0  0  0  0  0  0  0  0  0  0
    0.9760    2.0448   -0.1855 C   0  0  0  0  0  0  0  0  0  0  0  0
   -0.2850    1.5658    0.5785 C   0  0  0  0  0  0  0  0  0  0  0  0
   -0.7570    0.3808   -0.0055 C   0  0  0  0  0  0  0  0  0  0  0  0
   -0.2650   -0.6902    0.3225 O   0  0  0  0  0  0  0  0  0  0  0  0
   -1.7150    0.5068   -0.9695 N   0  0  0  0  0  0  0  0  0  0  0  0
   -2.2440   -0.6542   -1.7015 C   0  0  0  0  0  0  0  0  0  0  0  0
   -1.4690   -0.8742   -2.8835 C   0  0  0  0  0  0  0  0  0  0  0  0
   -1.7320   -2.0042   -3.6745 C   0  0  0  0  0  0  0  0  0  0  0  0
   -0.9900   -2.2752   -4.8315 C   0  0  0  0  0  0  0  0  0  0  0  0
   -0.4320   -0.0272   -3.2915 C   0  0  0  0  0  0  0  0  0  0  0  0
    0.3070   -0.2952   -4.4425 C   0  0  0  0  0  0  0  0  0  0  0  0
    0.0370   -1.4102   -5.2245 C   0  0  0  0  0  0  0  0  0  0  0  0
    0.7730   -1.6232   -6.3225 C   0  0  0  0  0  0  0  0  0  0  0  0
    2.1120   -1.3682   -6.4215 O   0  0  0  0  0  0  0  0  0  0  0  0
    2.4830   -1.7042   -7.6705 C   0  0  0  0  0  0  0  0  0  0  0  0
    1.3970   -2.1462   -8.3115 N   0  0  0  0  0  0  0  0  0  0  0  0
    0.3410   -2.0972   -7.4855 C   0  0  0  0  0  0  0  0  0  0  0  0
    0.3702   -1.2919    6.8222 H   0  0  0  0  0  0  0  0  0  0  0  0
   -0.2968    0.3612    7.0435 H   0  0  0  0  0  0  0  0  0  0  0  0
    1.3608    0.1420    6.3869 H   0  0  0  0  0  0  0  0  0  0  0  0
   -2.1215   -0.9186    4.0940 H   0  0  0  0  0  0  0  0  0  0  0  0
   -2.2735   -0.2133    5.7391 H   0  0  0  0  0  0  0  0  0  0  0  0
   -1.6411   -1.8818    5.5320 H   0  0  0  0  0  0  0  0  0  0  0  0
    1.6517   -0.8023    4.0140 H   0  0  0  0  0  0  0  0  0  0  0  0
    0.1874   -1.2495    3.0745 H   0  0  0  0  0  0  0  0  0  0  0  0
    0.6728   -2.2275    4.5009 H   0  0  0  0  0  0  0  0  0  0  0  0
    0.7842    1.5299    4.5440 H   0  0  0  0  0  0  0  0  0  0  0  0
   -0.9069    1.7206    5.1192 H   0  0  0  0  0  0  0  0  0  0  0  0
    2.2143    0.7813    2.0082 H   0  0  0  0  0  0  0  0  0  0  0  0
    1.8793    2.2290    3.0174 H   0  0  0  0  0  0  0  0  0  0  0  0
    2.9496    2.5590    0.5606 H   0  0  0  0  0  0  0  0  0  0  0  0
    1.7184    4.5202    0.4259 H   0  0  0  0  0  0  0  0  0  0  0  0
    1.4569    1.2010   -0.7018 H   0  0  0  0  0  0  0  0  0  0  0  0
    0.7103    2.8202   -0.9190 H   0  0  0  0  0  0  0  0  0  0  0  0
   -1.0796    2.3243    0.5215 H   0  0  0  0  0  0  0  0  0  0  0  0
   -2.0684    1.4171   -1.1849 H   0  0  0  0  0  0  0  0  0  0  0  0
   -3.2908   -0.4640   -1.9810 H   0  0  0  0  0  0  0  0  0  0  0  0
   -2.1921   -1.5458   -1.0593 H   0  0  0  0  0  0  0  0  0  0  0  0
   -2.5266   -2.6817   -3.3835 H   0  0  0  0  0  0  0  0  0  0  0  0
   -1.2118   -3.1561   -5.4229 H   0  0  0  0  0  0  0  0  0  0  0  0
   -0.1996    0.8524   -2.7021 H   0  0  0  0  0  0  0  0  0  0  0  0
    1.1058    0.3781   -4.7319 H   0  0  0  0  0  0  0  0  0  0  0  0
    3.4875   -1.6294   -8.0845 H   0  0  0  0  0  0  0  0  0  0  0  0
   -0.6800   -2.3913   -7.7241 H   0  0  0  0  0  0  0  0  0  0  0  0
  1  2  1  0
  1 29  1  0
  1 30  1  0
  1 31  1  0
  2  3  1  0
  2  4  1  0
  2  5  1  0
  3 32  1  0
  3 33  1  0
  3 34  1  0
  4 35  1  0
  4 36  1  0
  4 37  1  0
  5  6  1  0
  5 38  1  0
  5 39  1  0
  6  7  2  0
  6  8  1  0
  8  9  1  0
  8 13  1  0
  9 10  1  0
  9 40  1  0
  9 41  1  0
 10 11  1  0
 10 12  1  0
 10 42  1  0
 11 43  1  0
 12 13  1  0
 12 44  1  0
 12 45  1  0
 13 14  1  0
 13 46  1  0
 14 15  2  0
 14 16  1  0
 16 17  1  0
 16 47  1  0
 17 18  1  0
 17 48  1  0
 17 49  1  0
 18 19  2  0
 18 21  1  0
 19 20  1  0
 19 50  1  0
 20 23  2  0
 20 51  1  0
 21 22  2  0
 21 52  1  0
 22 23  1  0
 22 53  1  0
 23 24  1  0
 24 25  1  0
 24 28  2  0
 25 26  1  0
 26 27  2  0
 26 54  1  0
 27 28  1  0
 28 55  1  0
M  END
>  <template_idx>  (1) 
4w9c_ligand

>  <smiles>  (1) 
CC(C)(C)CC(=O)N1CC(O)CC1C(=O)NCc1ccc(-c2cnco2)cc1

$$$$
sample0
     RDKit          3D

 55 57  0  0  0  0  0  0  0  0999 V2000
    0.2020   -0.1910    6.0631 C   0  0  0  0  0  0  0  0  0  0  0  0
   -0.2040   -0.2407    4.5597 C   0  0  0  0  0  0  0  0  0  0  0  0
   -1.5671   -0.9311    4.4259 C   0  0  0  0  0  0  0  0  0  0  0  0
    0.8497   -1.0658    3.8469 C   0  0  0  0  0  0  0  0  0  0  0  0
   -0.3775    1.1561    3.9685 C   0  0  0  0  0  0  0  0  0  0  0  0
   -0.7786    1.1842    2.5515 C   0  0  0  0  0  0  0  0  0  0  0  0
   -1.9955    1.2665    2.1982 O   0  0  0  0  0  0  0  0  0  0  0  0
    0.2238    1.2225    1.6950 N   0  0  0  0  0  0  0  0  0  0  0  0
    1.6456    1.1401    1.9000 C   0  0  0  0  0  0  0  0  0  0  0  0
    2.1369    2.2872    0.9653 C   0  0  0  0  0  0  0  0  0  0  0  0
    1.8245    3.4959    1.5596 O   0  0  0  0  0  0  0  0  0  0  0  0
    1.2520    2.0454   -0.3057 C   0  0  0  0  0  0  0  0  0  0  0  0
   -0.0670    1.5106    0.3119 C   0  0  0  0  0  0  0  0  0  0  0  0
   -0.6263    0.2658   -0.2405 C   0  0  0  0  0  0  0  0  0  0  0  0
   -0.0421   -0.7695   -0.3164 O   0  0  0  0  0  0  0  0  0  0  0  0
   -1.9099    0.3628   -0.4372 N   0  0  0  0  0  0  0  0  0  0  0  0
   -2.4414   -0.4094   -1.4766 C   0  0  0  0  0  0  0  0  0  0  0  0
   -1.4552   -0.7371   -2.5626 N   0  0  0  0  0  0  0  0  0  0  0  0
   -1.6978   -1.8248   -3.2710 C   0  0  0  0  0  0  0  0  0  0  0  0
   -1.0070   -2.0651   -4.4257 C   0  0  0  0  0  0  0  0  0  0  0  0
   -0.4320    0.0725   -2.8919 C   0  0  0  0  0  0  0  0  0  0  0  0
    0.3044   -0.1652   -4.0348 C   0  0  0  0  0  0  0  0  0  0  0  0
   -0.0010   -1.2298   -4.8004 C   0  0  0  0  0  0  0  0  0  0  0  0
    0.6634   -1.4390   -5.9307 N   0  0  0  0  0  0  0  0  0  0  0  0
    1.6275   -0.5705   -6.3033 N   0  0  0  0  0  0  0  0  0  0  0  0
    2.2107   -1.1668   -7.3433 C   0  0  0  0  0  0  0  0  0  0  0  0
    1.6022   -2.2614   -7.7307 N   0  0  0  0  0  0  0  0  0  0  0  0
    0.6180   -2.4192   -6.8611 C   0  0  0  0  0  0  0  0  0  0  0  0
    0.2327   -1.1963    6.4341 H   0  0  0  0  0  0  0  0  0  0  0  0
   -0.4915    0.3976    6.5939 H   0  0  0  0  0  0  0  0  0  0  0  0
    1.1766    0.2431    6.1483 H   0  0  0  0  0  0  0  0  0  0  0  0
   -1.8758   -0.9767    3.3403 H   0  0  0  0  0  0  0  0  0  0  0  0
   -2.3302   -0.3775    4.9707 H   0  0  0  0  0  0  0  0  0  0  0  0
   -1.4926   -1.9206    4.8267 H   0  0  0  0  0  0  0  0  0  0  0  0
    1.8485   -0.6318    3.9622 H   0  0  0  0  0  0  0  0  0  0  0  0
    0.6215   -1.1809    2.7462 H   0  0  0  0  0  0  0  0  0  0  0  0
    0.8754   -2.0746    4.3248 H   0  0  0  0  0  0  0  0  0  0  0  0
    0.4815    1.8486    4.2043 H   0  0  0  0  0  0  0  0  0  0  0  0
   -1.1771    1.6400    4.5612 H   0  0  0  0  0  0  0  0  0  0  0  0
    1.9956    0.1908    1.5106 H   0  0  0  0  0  0  0  0  0  0  0  0
    2.0207    1.2982    2.9045 H   0  0  0  0  0  0  0  0  0  0  0  0
    3.1699    2.2466    0.7444 H   0  0  0  0  0  0  0  0  0  0  0  0
    1.0399    3.8903    1.1655 H   0  0  0  0  0  0  0  0  0  0  0  0
    1.6526    1.2484   -0.9600 H   0  0  0  0  0  0  0  0  0  0  0  0
    1.1751    2.9350   -0.8969 H   0  0  0  0  0  0  0  0  0  0  0  0
   -0.8389    2.3166    0.2157 H   0  0  0  0  0  0  0  0  0  0  0  0
   -2.4186    0.7595    0.4242 H   0  0  0  0  0  0  0  0  0  0  0  0
   -3.0473   -1.2563   -1.1338 H   0  0  0  0  0  0  0  0  0  0  0  0
   -3.2728    0.0626   -1.9517 H   0  0  0  0  0  0  0  0  0  0  0  0
   -2.4967   -2.5168   -2.9226 H   0  0  0  0  0  0  0  0  0  0  0  0
   -1.3133   -2.9386   -5.0521 H   0  0  0  0  0  0  0  0  0  0  0  0
   -0.2168    1.0005   -2.3508 H   0  0  0  0  0  0  0  0  0  0  0  0
    1.1256    0.4550   -4.2891 H   0  0  0  0  0  0  0  0  0  0  0  0
    3.1561   -0.8583   -7.7309 H   0  0  0  0  0  0  0  0  0  0  0  0
   -0.1584   -3.1276   -6.9033 H   0  0  0  0  0  0  0  0  0  0  0  0
  1  2  1  0
  1 29  1  0
  1 30  1  0
  1 31  1  0
  2  3  1  0
  2  4  1  0
  2  5  1  0
  3 32  1  0
  3 33  1  0
  3 34  1  0
  4 35  1  0
  4 36  1  0
  4 37  1  0
  5  6  1  0
  5 38  1  0
  5 39  1  0
  6  7  2  0
  6  8  1  0
  8  9  1  0
  8 13  1  0
  9 10  1  0
  9 40  1  0
  9 41  1  0
 10 11  1  0
 10 12  1  0
 10 42  1  0
 11 43  1  0
 12 13  1  0
 12 44  1  0
 12 45  1  0
 13 14  1  0
 13 46  1  0
 14 15  2  0
 14 16  1  0
 16 17  1  0
 16 47  1  0
 17 18  1  0
 17 48  1  0
 17 49  1  0
 18 19  2  0
 18 21  1  0
 19 20  1  0
 19 50  1  0
 20 23  2  0
 20 51  1  0
 21 22  2  0
 21 52  1  0
 22 23  1  0
 22 53  1  0
 23 24  1  0
 24 25  1  0
 24 28  1  0
 25 26  2  0
 26 27  1  0
 26 54  1  0
 27 28  2  0
 28 55  1  0
M  CHG  1  18   1
M  END
>  <template_idx>  (2) 
4w9c_ligand

>  <smiles>  (2) 
CC(C)(C)CC(=O)N1CC(O)CC1C(=O)NC[n+]1ccc(-n2cncn2)cc1

>  <qed>  (2) 
0.7045023544382336

$$$$
sample1
     RDKit          3D

 55 57  0  0  0  0  0  0  0  0999 V2000
    0.0870   -0.1887    5.9042 C   0  0  0  0  0  0  0  0  0  0  0  0
   -0.2867   -0.1900    4.3981 C   0  0  0  0  0  0  0  0  0  0  0  0
   -1.4879   -1.1091    4.1443 C   0  0  0  0  0  0  0  0  0  0  0  0
    0.9075   -0.7078    3.6197 C   0  0  0  0  0  0  0  0  0  0  0  0
   -0.6741    1.1997    3.9387 C   0  0  0  0  0  0  0  0  0  0  0  0
   -1.0116    1.3713    2.4967 C   0  0  0  0  0  0  0  0  0  0  0  0
   -2.2151    1.2736    2.0975 O   0  0  0  0  0  0  0  0  0  0  0  0
    0.0027    1.8008    1.6986 N   0  0  0  0  0  0  0  0  0  0  0  0
    1.0592    2.4647    2.2363 C   0  0  0  0  0  0  0  0  0  0  0  0
    2.4016    1.6316    0.4679 C   0  0  0  0  0  0  0  0  0  0  0  0
    2.1398    2.2581    1.6829 N   0  0  0  0  0  0  0  0  0  0  0  0
    1.2241    1.7747   -0.4590 C   0  0  0  0  0  0  0  0  0  0  0  0
   -0.0831    1.5494    0.2975 C   0  0  0  0  0  0  0  0  0  0  0  0
   -0.6114    0.2165    0.1852 C   0  0  0  0  0  0  0  0  0  0  0  0
    0.0101   -0.7690    0.5862 O   0  0  0  0  0  0  0  0  0  0  0  0
   -1.8751    0.1816   -0.2407 N   0  0  0  0  0  0  0  0  0  0  0  0
   -2.4151   -0.5824   -1.2826 C   0  0  0  0  0  0  0  0  0  0  0  0
   -1.5227   -0.7935   -2.4561 C   0  0  0  0  0  0  0  0  0  0  0  0
   -1.6600   -1.9823   -3.1319 C   0  0  0  0  0  0  0  0  0  0  0  0
   -0.9177   -2.2019   -4.2904 C   0  0  0  0  0  0  0  0  0  0  0  0
   -0.6119    0.1242   -2.8797 C   0  0  0  0  0  0  0  0  0  0  0  0
    0.1524   -0.1146   -3.9999 C   0  0  0  0  0  0  0  0  0  0  0  0
   -0.0194   -1.2745   -4.6866 C   0  0  0  0  0  0  0  0  0  0  0  0
    0.7086   -1.5181   -5.7478 N   0  0  0  0  0  0  0  0  0  0  0  0
    1.7917   -0.7535   -5.9754 N   0  0  0  0  0  0  0  0  0  0  0  0
    2.3995   -1.3410   -6.9561 C   0  0  0  0  0  0  0  0  0  0  0  0
    1.7054   -2.3830   -7.4829 N   0  0  0  0  0  0  0  0  0  0  0  0
    0.6174   -2.4301   -6.7422 C   0  0  0  0  0  0  0  0  0  0  0  0
    0.3401   -1.1882    6.1980 H   0  0  0  0  0  0  0  0  0  0  0  0
   -0.7150    0.1887    6.4743 H   0  0  0  0  0  0  0  0  0  0  0  0
    0.9335    0.4608    6.0331 H   0  0  0  0  0  0  0  0  0  0  0  0
   -1.6985   -1.1795    3.0225 H   0  0  0  0  0  0  0  0  0  0  0  0
   -2.3490   -0.7162    4.6148 H   0  0  0  0  0  0  0  0  0  0  0  0
   -1.2786   -2.0896    4.5196 H   0  0  0  0  0  0  0  0  0  0  0  0
    1.8306   -0.1162    3.8267 H   0  0  0  0  0  0  0  0  0  0  0  0
    0.7162   -0.6772    2.5098 H   0  0  0  0  0  0  0  0  0  0  0  0
    1.0926   -1.7339    3.9292 H   0  0  0  0  0  0  0  0  0  0  0  0
    0.1300    1.9223    4.1984 H   0  0  0  0  0  0  0  0  0  0  0  0
   -1.5737    1.4816    4.5556 H   0  0  0  0  0  0  0  0  0  0  0  0
    2.6036    0.5749    0.6014 H   0  0  0  0  0  0  0  0  0  0  0  0
    1.0572    3.3509    3.1653 O   0  0  0  0  0  0  0  0  0  0  0  0
    3.3292    2.1156    0.0781 H   0  0  0  0  0  0  0  0  0  0  0  0
    2.6026    3.2524    1.8074 H   0  0  0  0  0  0  0  0  0  0  0  0
    1.2797    1.0757   -1.3100 H   0  0  0  0  0  0  0  0  0  0  0  0
    1.2650    2.7958   -0.8766 H   0  0  0  0  0  0  0  0  0  0  0  0
   -0.8351    2.2655   -0.1294 H   0  0  0  0  0  0  0  0  0  0  0  0
   -2.4976    0.6234    0.4721 H   0  0  0  0  0  0  0  0  0  0  0  0
   -3.2872   -0.0804   -1.5976 H   0  0  0  0  0  0  0  0  0  0  0  0
   -2.7232   -1.5421   -0.8642 H   0  0  0  0  0  0  0  0  0  0  0  0
   -2.3673   -2.7419   -2.8004 H   0  0  0  0  0  0  0  0  0  0  0  0
   -1.0545   -3.1494   -4.8700 H   0  0  0  0  0  0  0  0  0  0  0  0
   -0.5399    1.0743   -2.3751 H   0  0  0  0  0  0  0  0  0  0  0  0
    0.8345    0.6150   -4.3985 H   0  0  0  0  0  0  0  0  0  0  0  0
    3.3343   -1.0783   -7.3044 H   0  0  0  0  0  0  0  0  0  0  0  0
   -0.2447   -3.0108   -6.9027 H   0  0  0  0  0  0  0  0  0  0  0  0
  1  2  1  0
  1 29  1  0
  1 30  1  0
  1 31  1  0
  2  3  1  0
  2  4  1  0
  2  5  1  0
  3 32  1  0
  3 33  1  0
  3 34  1  0
  4 35  1  0
  4 36  1  0
  4 37  1  0
  5  6  1  0
  5 38  1  0
  5 39  1  0
  6  7  2  0
  6  8  1  0
  8  9  1  0
  8 13  1  0
  9 11  1  0
  9 41  2  0
 10 11  1  0
 10 12  1  0
 10 40  1  0
 10 42  1  0
 11 43  1  0
 12 13  1  0
 12 44  1  0
 12 45  1  0
 13 14  1  0
 13 46  1  0
 14 15  2  0
 14 16  1  0
 16 17  1  0
 16 47  1  0
 17 18  1  0
 17 48  1  0
 17 49  1  0
 18 19  2  0
 18 21  1  0
 19 20  1  0
 19 50  1  0
 20 23  2  0
 20 51  1  0
 21 22  2  0
 21 52  1  0
 22 23  1  0
 22 53  1  0
 23 24  1  0
 24 25  1  0
 24 28  1  0
 25 26  2  0
 26 27  1  0
 26 54  1  0
 27 28  2  0
 28 55  1  0
M  END
>  <template_idx>  (3) 
4w9c_ligand

>  <smiles>  (3) 
CC(C)(C)CC(=O)N1C(=O)NCCC1C(=O)NCc1ccc(-n2cncn2)cc1

>  <qed>  (3) 
0.7956104691654088

$$$$
sample2
     RDKit          3D

 55 57  0  0  0  0  0  0  0  0999 V2000
    0.3167   -0.3132    6.2230 C   0  0  0  0  0  0  0  0  0  0  0  0
   -0.1428   -0.2095    4.7285 C   0  0  0  0  0  0  0  0  0  0  0  0
   -1.5632   -0.7664    4.5660 C   0  0  0  0  0  0  0  0  0  0  0  0
    0.8145   -1.0017    3.8394 C   0  0  0  0  0  0  0  0  0  0  0  0
   -0.1812    1.2541    4.3217 C   0  0  0  0  0  0  0  0  0  0  0  0
   -0.7470    1.5324    2.9544 C   0  0  0  0  0  0  0  0  0  0  0  0
   -1.9819    1.7909    2.8006 O   0  0  0  0  0  0  0  0  0  0  0  0
    0.1516    1.6880    1.9899 N   0  0  0  0  0  0  0  0  0  0  0  0
    1.5742    1.9334    2.1191 C   0  0  0  0  0  0  0  0  0  0  0  0
    2.0184    2.3972    0.7063 C   0  0  0  0  0  0  0  0  0  0  0  0
    1.8940    3.7733    0.5421 O   0  0  0  0  0  0  0  0  0  0  0  0
    0.9885    1.7104   -0.2196 C   0  0  0  0  0  0  0  0  0  0  0  0
   -0.2968    1.6476    0.6155 C   0  0  0  0  0  0  0  0  0  0  0  0
   -1.1295    0.4144    0.4133 C   0  0  0  0  0  0  0  0  0  0  0  0
   -1.3102   -0.4511    1.2662 O   0  0  0  0  0  0  0  0  0  0  0  0
   -1.7709    0.3895   -0.7889 N   0  0  0  0  0  0  0  0  0  0  0  0
   -2.1841   -0.8003   -1.5004 C   0  0  0  0  0  0  0  0  0  0  0  0
   -1.3550   -1.0146   -2.7280 C   0  0  0  0  0  0  0  0  0  0  0  0
   -1.9046   -1.8399   -3.6723 C   0  0  0  0  0  0  0  0  0  0  0  0
   -1.2400   -1.9890   -4.8817 C   0  0  0  0  0  0  0  0  0  0  0  0
   -0.1052   -0.4814   -2.9232 C   0  0  0  0  0  0  0  0  0  0  0  0
    0.5398   -0.6148   -4.1236 C   0  0  0  0  0  0  0  0  0  0  0  0
   -0.0193   -1.3887   -5.0584 C   0  0  0  0  0  0  0  0  0  0  0  0
    0.6792   -1.5852   -6.1803 N   0  0  0  0  0  0  0  0  0  0  0  0
    1.7264   -0.7782   -6.4578 N   0  0  0  0  0  0  0  0  0  0  0  0
    2.2641   -1.3155   -7.5571 C   0  0  0  0  0  0  0  0  0  0  0  0
    1.5775   -2.3592   -8.0502 N   0  0  0  0  0  0  0  0  0  0  0  0
    0.6124   -2.5316   -7.1684 C   0  0  0  0  0  0  0  0  0  0  0  0
    0.2928   -1.3254    6.5024 H   0  0  0  0  0  0  0  0  0  0  0  0
   -0.3247    0.2618    6.8312 H   0  0  0  0  0  0  0  0  0  0  0  0
    1.3365    0.0564    6.2722 H   0  0  0  0  0  0  0  0  0  0  0  0
   -1.8635   -0.7595    3.4748 H   0  0  0  0  0  0  0  0  0  0  0  0
   -2.2770   -0.1320    5.0969 H   0  0  0  0  0  0  0  0  0  0  0  0
   -1.5907   -1.7860    4.9455 H   0  0  0  0  0  0  0  0  0  0  0  0
    1.8370   -0.5764    3.8826 H   0  0  0  0  0  0  0  0  0  0  0  0
    0.4787   -0.9934    2.7691 H   0  0  0  0  0  0  0  0  0  0  0  0
    0.8421   -2.0436    4.2205 H   0  0  0  0  0  0  0  0  0  0  0  0
    0.8235    1.7083    4.4603 H   0  0  0  0  0  0  0  0  0  0  0  0
   -0.8609    1.7756    5.0127 H   0  0  0  0  0  0  0  0  0  0  0  0
    2.0825    0.9784    2.3955 H   0  0  0  0  0  0  0  0  0  0  0  0
    1.8422    2.7050    2.8367 H   0  0  0  0  0  0  0  0  0  0  0  0
    3.0484    2.1009    0.5214 H   0  0  0  0  0  0  0  0  0  0  0  0
    0.9518    3.9600    0.7455 H   0  0  0  0  0  0  0  0  0  0  0  0
    1.3241    0.6809   -0.4448 H   0  0  0  0  0  0  0  0  0  0  0  0
    0.8721    2.2518   -1.1398 H   0  0  0  0  0  0  0  0  0  0  0  0
   -0.9724    2.5105    0.3692 H   0  0  0  0  0  0  0  0  0  0  0  0
   -2.0912    1.2585   -1.1164 H   0  0  0  0  0  0  0  0  0  0  0  0
   -3.2179   -0.6558   -1.7978 H   0  0  0  0  0  0  0  0  0  0  0  0
   -2.1313   -1.6547   -0.8767 H   0  0  0  0  0  0  0  0  0  0  0  0
   -2.8477   -2.4242   -3.4417 H   0  0  0  0  0  0  0  0  0  0  0  0
   -1.7159   -2.5828   -5.6896 H   0  0  0  0  0  0  0  0  0  0  0  0
    0.3703    0.0692   -2.1371 H   0  0  0  0  0  0  0  0  0  0  0  0
    1.4854   -0.1235   -4.3504 H   0  0  0  0  0  0  0  0  0  0  0  0
    3.2090   -1.0801   -7.9296 H   0  0  0  0  0  0  0  0  0  0  0  0
   -0.1285   -3.2707   -7.1884 H   0  0  0  0  0  0  0  0  0  0  0  0
  1  2  1  0
  1 29  1  0
  1 30  1  0
  1 31  1  0
  2  3  1  0
  2  4  1  0
  2  5  1  0
  3 32  1  0
  3 33  1  0
  3 34  1  0
  4 35  1  0
  4 36  1  0
  4 37  1  0
  5  6  1  0
  5 38  1  0
  5 39  1  0
  6  7  2  0
  6  8  1  0
  8  9  1  0
  8 13  1  0
  9 10  1  0
  9 40  1  0
  9 41  1  0
 10 11  1  0
 10 12  1  0
 10 42  1  0
 11 43  1  0
 12 13  1  0
 12 44  1  0
 12 45  1  0
 13 14  1  0
 13 46  1  0
 14 15  2  0
 14 16  1  0
 16 17  1  0
 16 47  1  0
 17 18  1  0
 17 48  1  0
 17 49  1  0
 18 19  2  0
 18 21  1  0
 19 20  1  0
 19 50  1  0
 20 23  2  0
 20 51  1  0
 21 22  2  0
 21 52  1  0
 22 23  1  0
 22 53  1  0
 23 24  1  0
 24 25  1  0
 24 28  1  0
 25 26  2  0
 26 27  1  0
 26 54  1  0
 27 28  2  0
 28 55  1  0
M  END
>  <template_idx>  (4) 
4w9c_ligand

>  <smiles>  (4) 
CC(C)(C)CC(=O)N1CC(O)CC1C(=O)NCc1ccc(-n2cncn2)cc1

>  <qed>  (4) 
0.8076016440090804

$$$$
sample3
     RDKit          3D

 55 57  0  0  0  0  0  0  0  0999 V2000
    0.2494   -0.3817    6.3841 C   0  0  0  0  0  0  0  0  0  0  0  0
   -0.0578   -0.2966    4.8667 C   0  0  0  0  0  0  0  0  0  0  0  0
   -1.4292   -0.8937    4.5497 C   0  0  0  0  0  0  0  0  0  0  0  0
    1.0340   -1.0474    4.1147 C   0  0  0  0  0  0  0  0  0  0  0  0
   -0.0797    1.1721    4.4584 C   0  0  0  0  0  0  0  0  0  0  0  0
   -0.4729    1.3355    3.0520 C   0  0  0  0  0  0  0  0  0  0  0  0
   -1.5449    1.5376    2.9136 H   0  0  0  0  0  0  0  0  0  0  0  0
    0.2897    1.3154    2.0356 C   0  0  0  0  0  0  0  0  0  0  0  0
    1.7720    1.4029    1.9345 C   0  0  0  0  0  0  0  0  0  0  0  0
    1.9710    2.4122    0.7800 C   0  0  0  0  0  0  0  0  0  0  0  0
    1.7350    3.7301    1.1888 O   0  0  0  0  0  0  0  0  0  0  0  0
    0.8732    1.9793   -0.2207 C   0  0  0  0  0  0  0  0  0  0  0  0
   -0.3199    1.5399    0.6682 C   0  0  0  0  0  0  0  0  0  0  0  0
   -1.1140    0.3138    0.2710 C   0  0  0  0  0  0  0  0  0  0  0  0
   -1.2201   -0.7426    0.9587 O   0  0  0  0  0  0  0  0  0  0  0  0
   -1.8306    0.5235   -0.8356 N   0  0  0  0  0  0  0  0  0  0  0  0
   -2.3747   -0.5265   -1.6608 C   0  0  0  0  0  0  0  0  0  0  0  0
   -1.4915   -0.7683   -2.8339 C   0  0  0  0  0  0  0  0  0  0  0  0
   -1.5898   -1.9834   -3.4646 C   0  0  0  0  0  0  0  0  0  0  0  0
   -0.8781   -2.1972   -4.6588 C   0  0  0  0  0  0  0  0  0  0  0  0
   -0.5755    0.1399   -3.2888 C   0  0  0  0  0  0  0  0  0  0  0  0
    0.1767   -0.1071   -4.4300 C   0  0  0  0  0  0  0  0  0  0  0  0
   -0.0153   -1.2510   -5.1425 C   0  0  0  0  0  0  0  0  0  0  0  0
    0.7225   -1.4827   -6.2852 C   0  0  0  0  0  0  0  0  0  0  0  0
    1.8873   -0.9269   -6.4245 N   0  0  0  0  0  0  0  0  0  0  0  0
    2.3136   -2.0816   -8.0908 N   0  0  0  0  0  0  0  0  0  0  0  0
    1.1688   -2.5650   -8.2796 N   0  0  0  0  0  0  0  0  0  0  0  0
    0.2526   -2.2767   -7.3324 C   0  0  0  0  0  0  0  0  0  0  0  0
    0.2416   -1.4066    6.6501 H   0  0  0  0  0  0  0  0  0  0  0  0
   -0.5054    0.1836    6.8964 H   0  0  0  0  0  0  0  0  0  0  0  0
    1.2217    0.0420    6.5535 H   0  0  0  0  0  0  0  0  0  0  0  0
   -1.5877   -0.9312    3.4272 H   0  0  0  0  0  0  0  0  0  0  0  0
   -2.2239   -0.2772    4.9615 H   0  0  0  0  0  0  0  0  0  0  0  0
   -1.4946   -1.8934    4.9508 H   0  0  0  0  0  0  0  0  0  0  0  0
    1.9928   -0.5477    4.2632 H   0  0  0  0  0  0  0  0  0  0  0  0
    0.8274   -1.0983    3.0109 H   0  0  0  0  0  0  0  0  0  0  0  0
    1.0936   -2.0736    4.5061 H   0  0  0  0  0  0  0  0  0  0  0  0
    0.9072    1.6306    4.6490 H   0  0  0  0  0  0  0  0  0  0  0  0
   -0.7823    1.7321    5.1160 H   0  0  0  0  0  0  0  0  0  0  0  0
    2.2177    0.4361    1.6766 H   0  0  0  0  0  0  0  0  0  0  0  0
    2.2609    1.7922    2.8336 H   0  0  0  0  0  0  0  0  0  0  0  0
    2.9982    2.3799    0.4063 H   0  0  0  0  0  0  0  0  0  0  0  0
    1.6107    4.3527    0.4782 H   0  0  0  0  0  0  0  0  0  0  0  0
    1.2222    1.0840   -0.7955 H   0  0  0  0  0  0  0  0  0  0  0  0
    0.6091    2.7800   -0.9216 H   0  0  0  0  0  0  0  0  0  0  0  0
   -1.0530    2.3483    0.7422 H   0  0  0  0  0  0  0  0  0  0  0  0
   -2.1855    1.4752   -0.9901 H   0  0  0  0  0  0  0  0  0  0  0  0
   -3.3712   -0.2578   -2.0066 H   0  0  0  0  0  0  0  0  0  0  0  0
   -2.4445   -1.4278   -1.0568 H   0  0  0  0  0  0  0  0  0  0  0  0
   -2.2328   -2.7950   -3.0469 H   0  0  0  0  0  0  0  0  0  0  0  0
   -1.0268   -3.1862   -5.1465 H   0  0  0  0  0  0  0  0  0  0  0  0
   -0.4700    1.1135   -2.7469 H   0  0  0  0  0  0  0  0  0  0  0  0
    0.8856    0.6439   -4.7903 H   0  0  0  0  0  0  0  0  0  0  0  0
    2.6117   -1.3507   -7.3981 N   0  0  0  0  0  0  0  0  0  0  0  0
   -0.7748   -2.6223   -7.4503 H   0  0  0  0  0  0  0  0  0  0  0  0
  1  2  1  0
  1 29  1  0
  1 30  1  0
  1 31  1  0
  2  3  1  0
  2  4  1  0
  2  5  1  0
  3 32  1  0
  3 33  1  0
  3 34  1  0
  4 35  1  0
  4 36  1  0
  4 37  1  0
  5  6  1  0
  5 38  1  0
  5 39  1  0
  6  7  1  0
  6  8  2  3
  8  9  1  0
  8 13  1  0
  9 10  1  0
  9 40  1  0
  9 41  1  0
 10 11  1  0
 10 12  1  0
 10 42  1  0
 11 43  1  0
 12 13  1  0
 12 44  1  0
 12 45  1  0
 13 14  1  0
 13 46  1  0
 14 15  2  0
 14 16  1  0
 16 17  1  0
 16 47  1  0
 17 18  1  0
 17 48  1  0
 17 49  1  0
 18 19  2  0
 18 21  1  0
 19 20  1  0
 19 50  1  0
 20 23  2  0
 20 51  1  0
 21 22  2  0
 21 52  1  0
 22 23  1  0
 22 53  1  0
 23 24  1  0
 24 25  2  0
 24 28  1  0
 25 54  1  0
 26 27  1  0
 26 54  2  0
 27 28  2  0
 28 55  1  0
M  END
>  <template_idx>  (5) 
4w9c_ligand

>  <smiles>  (5) 
CC(C)(C)CC=C1CC(O)CC1C(=O)NCc1ccc(-c2cnnnn2)cc1

>  <qed>  (5) 
0.7724456565022743

$$$$
sample4
     RDKit          3D

 55 57  0  0  0  0  0  0  0  0999 V2000
    0.2560   -0.3045    6.1512 C   0  0  0  0  0  0  0  0  0  0  0  0
   -0.1194   -0.1425    4.6334 C   0  0  0  0  0  0  0  0  0  0  0  0
   -1.4843   -0.7666    4.3879 C   0  0  0  0  0  0  0  0  0  0  0  0
    0.9334   -0.8976    3.8313 C   0  0  0  0  0  0  0  0  0  0  0  0
   -0.2261    1.3383    4.3348 C   0  0  0  0  0  0  0  0  0  0  0  0
   -0.4046    1.6162    2.9011 C   0  0  0  0  0  0  0  0  0  0  0  0
   -1.3764    2.0501    2.6921 H   0  0  0  0  0  0  0  0  0  0  0  0
    0.4075    1.4733    1.9267 C   0  0  0  0  0  0  0  0  0  0  0  0
    1.8445    1.3091    2.0384 C   0  0  0  0  0  0  0  0  0  0  0  0
    1.9045    2.7976    0.1515 C   0  0  0  0  0  0  0  0  0  0  0  0
    2.3885    2.4853    1.3170 C   0  0  0  0  0  0  0  0  0  0  0  0
    0.8937    1.9292   -0.5003 C   0  0  0  0  0  0  0  0  0  0  0  0
   -0.1953    1.5863    0.5416 C   0  0  0  0  0  0  0  0  0  0  0  0
   -0.9829    0.3442    0.3615 C   0  0  0  0  0  0  0  0  0  0  0  0
   -0.9675   -0.6541    1.1429 O   0  0  0  0  0  0  0  0  0  0  0  0
   -1.8072    0.3919   -0.6737 N   0  0  0  0  0  0  0  0  0  0  0  0
   -2.3020   -0.7137   -1.4322 C   0  0  0  0  0  0  0  0  0  0  0  0
   -1.4609   -0.9832   -2.5990 C   0  0  0  0  0  0  0  0  0  0  0  0
   -2.0555   -1.6652   -3.5977 C   0  0  0  0  0  0  0  0  0  0  0  0
   -1.4092   -1.8131   -4.8109 C   0  0  0  0  0  0  0  0  0  0  0  0
   -0.1697   -0.6210   -2.6965 C   0  0  0  0  0  0  0  0  0  0  0  0
    0.4526   -0.7486   -3.9229 C   0  0  0  0  0  0  0  0  0  0  0  0
   -0.1914   -1.3358   -4.9645 C   0  0  0  0  0  0  0  0  0  0  0  0
    0.4526   -1.5066   -6.0959 N   0  0  0  0  0  0  0  0  0  0  0  0
    1.7472   -1.0859   -6.1414 N   0  0  0  0  0  0  0  0  0  0  0  0
    2.2778   -1.3843   -7.2958 C   0  0  0  0  0  0  0  0  0  0  0  0
    1.2470   -2.0968   -8.5001 S   0  0  0  0  0  0  0  0  0  0  0  0
   -0.0226   -2.0527   -7.2672 C   0  0  0  0  0  0  0  0  0  0  0  0
    0.3444   -1.3925    6.3744 H   0  0  0  0  0  0  0  0  0  0  0  0
    1.1097    0.2346    6.3344 H   0  0  0  0  0  0  0  0  0  0  0  0
   -0.3773    0.2161    6.7930 H   0  0  0  0  0  0  0  0  0  0  0  0
   -1.7190   -0.6657    3.2821 H   0  0  0  0  0  0  0  0  0  0  0  0
   -2.2723   -0.2483    4.9497 H   0  0  0  0  0  0  0  0  0  0  0  0
   -1.4817   -1.8077    4.6763 H   0  0  0  0  0  0  0  0  0  0  0  0
    1.9651   -0.5613    4.0908 H   0  0  0  0  0  0  0  0  0  0  0  0
    0.7416   -0.8268    2.7264 H   0  0  0  0  0  0  0  0  0  0  0  0
    0.8772   -1.9800    4.1467 H   0  0  0  0  0  0  0  0  0  0  0  0
    0.6488    1.8870    4.7256 H   0  0  0  0  0  0  0  0  0  0  0  0
   -1.0999    1.7630    4.9164 H   0  0  0  0  0  0  0  0  0  0  0  0
    2.2495    0.3285    1.5976 H   0  0  0  0  0  0  0  0  0  0  0  0
    2.2118    1.3226    3.0930 H   0  0  0  0  0  0  0  0  0  0  0  0
    3.1552    3.0192    1.7908 H   0  0  0  0  0  0  0  0  0  0  0  0
    2.0942    3.8183   -0.2504 H   0  0  0  0  0  0  0  0  0  0  0  0
    1.3785    1.0016   -0.8668 H   0  0  0  0  0  0  0  0  0  0  0  0
    0.4718    2.4221   -1.3767 H   0  0  0  0  0  0  0  0  0  0  0  0
   -0.9459    2.4348    0.5180 H   0  0  0  0  0  0  0  0  0  0  0  0
   -2.2146    1.3132   -0.8578 H   0  0  0  0  0  0  0  0  0  0  0  0
   -3.3123   -0.4798   -1.7535 H   0  0  0  0  0  0  0  0  0  0  0  0
   -2.3579   -1.5697   -0.8140 H   0  0  0  0  0  0  0  0  0  0  0  0
   -3.0442   -2.1111   -3.4361 H   0  0  0  0  0  0  0  0  0  0  0  0
   -1.9355   -2.3708   -5.6371 H   0  0  0  0  0  0  0  0  0  0  0  0
    0.3916   -0.2429   -1.8316 H   0  0  0  0  0  0  0  0  0  0  0  0
    1.4323   -0.3790   -4.0638 H   0  0  0  0  0  0  0  0  0  0  0  0
    3.2318   -1.2812   -7.5312 H   0  0  0  0  0  0  0  0  0  0  0  0
   -1.1730   -2.3936   -7.5094 O   0  0  0  0  0  0  0  0  0  0  0  0
  1  2  1  0
  1 29  1  0
  1 30  1  0
  1 31  1  0
  2  3  1  0
  2  4  1  0
  2  5  1  0
  3 32  1  0
  3 33  1  0
  3 34  1  0
  4 35  1  0
  4 36  1  0
  4 37  1  0
  5  6  1  0
  5 38  1  0
  5 39  1  0
  6  7  1  0
  6  8  2  3
  8  9  1  0
  8 13  1  0
  9 11  1  0
  9 40  1  0
  9 41  1  0
 10 11  2  0
 10 12  1  0
 10 43  1  0
 11 42  1  0
 12 13  1  0
 12 44  1  0
 12 45  1  0
 13 14  1  0
 13 46  1  0
 14 15  2  0
 14 16  1  0
 16 17  1  0
 16 47  1  0
 17 18  1  0
 17 48  1  0
 17 49  1  0
 18 19  2  0
 18 21  1  0
 19 20  1  0
 19 50  1  0
 20 23  2  0
 20 51  1  0
 21 22  2  0
 21 52  1  0
 22 23  1  0
 22 53  1  0
 23 24  1  0
 24 25  1  0
 24 28  1  0
 25 26  2  0
 26 27  1  0
 26 54  1  0
 27 28  1  0
 28 55  2  0
M  END
>  <template_idx>  (6) 
4w9c_ligand

>  <smiles>  (6) 
CC(C)(C)CC=C1CC=CCC1C(=O)NCc1ccc(-n2ncsc2=O)cc1

>  <qed>  (6) 
0.76775356273484

$$$$
sample5
     RDKit          3D

 55 57  0  0  0  0  0  0  0  0999 V2000
    0.2464   -0.0766    6.0682 C   0  0  0  0  0  0  0  0  0  0  0  0
   -0.1279   -0.0886    4.5536 C   0  0  0  0  0  0  0  0  0  0  0  0
   -1.4142   -0.8678    4.2961 C   0  0  0  0  0  0  0  0  0  0  0  0
    1.0110   -0.7638    3.8210 C   0  0  0  0  0  0  0  0  0  0  0  0
   -0.4444    1.3265    4.0980 C   0  0  0  0  0  0  0  0  0  0  0  0
   -0.8944    1.3711    2.6851 C   0  0  0  0  0  0  0  0  0  0  0  0
   -2.1373    1.3536    2.3913 O   0  0  0  0  0  0  0  0  0  0  0  0
    0.0629    1.5757    1.8135 N   0  0  0  0  0  0  0  0  0  0  0  0
    1.4855    1.6755    2.0012 C   0  0  0  0  0  0  0  0  0  0  0  0
    1.9263    2.5080    0.7712 C   0  0  0  0  0  0  0  0  0  0  0  0
    1.6146    3.8384    0.9657 O   0  0  0  0  0  0  0  0  0  0  0  0
    1.5214    0.9516   -0.7186 H   0  0  0  0  0  0  0  0  0  0  0  0
   -0.2455    1.5141    0.3874 C   0  0  0  0  0  0  0  0  0  0  0  0
   -0.7854    0.1621    0.1966 C   0  0  0  0  0  0  0  0  0  0  0  0
   -0.3180   -0.8592    0.7970 O   0  0  0  0  0  0  0  0  0  0  0  0
   -1.9345    0.1393   -0.5218 N   0  0  0  0  0  0  0  0  0  0  0  0
   -2.3344   -0.8469   -1.4640 C   0  0  0  0  0  0  0  0  0  0  0  0
   -1.4618   -0.9798   -2.6895 C   0  0  0  0  0  0  0  0  0  0  0  0
   -1.9025   -1.8408   -3.6628 C   0  0  0  0  0  0  0  0  0  0  0  0
   -1.1508   -2.0013   -4.7567 C   0  0  0  0  0  0  0  0  0  0  0  0
   -0.2579   -0.3530   -2.8520 C   0  0  0  0  0  0  0  0  0  0  0  0
    0.4607   -0.4839   -3.9954 C   0  0  0  0  0  0  0  0  0  0  0  0
    0.0424   -1.3383   -4.9280 C   0  0  0  0  0  0  0  0  0  0  0  0
    0.7065   -1.7712   -6.0924 C   0  0  0  0  0  0  0  0  0  0  0  0
    2.7492   -1.8284   -5.7627 H   0  0  0  0  0  0  0  0  0  0  0  0
    2.0464   -1.3982   -6.4580 C   0  0  0  0  0  0  0  0  0  0  0  0
    2.2121   -1.6280   -7.5913 H   0  0  0  0  0  0  0  0  0  0  0  0
    0.0151   -2.6362   -6.8016 C   0  0  0  0  0  0  0  0  0  0  0  0
    0.3851   -1.0879    6.3765 H   0  0  0  0  0  0  0  0  0  0  0  0
   -0.5188    0.3928    6.6131 H   0  0  0  0  0  0  0  0  0  0  0  0
    1.1501    0.4824    6.1905 H   0  0  0  0  0  0  0  0  0  0  0  0
   -1.5516   -1.0106    3.1661 H   0  0  0  0  0  0  0  0  0  0  0  0
   -2.2757   -0.3148    4.6570 H   0  0  0  0  0  0  0  0  0  0  0  0
   -1.3733   -1.8260    4.7895 H   0  0  0  0  0  0  0  0  0  0  0  0
    2.0072   -0.2824    4.0402 H   0  0  0  0  0  0  0  0  0  0  0  0
    0.8136   -0.7820    2.7245 H   0  0  0  0  0  0  0  0  0  0  0  0
    1.0669   -1.7983    4.1914 H   0  0  0  0  0  0  0  0  0  0  0  0
    0.4004    1.9981    4.2965 H   0  0  0  0  0  0  0  0  0  0  0  0
   -1.2839    1.7232    4.7469 H   0  0  0  0  0  0  0  0  0  0  0  0
    1.9284    0.6570    1.9097 H   0  0  0  0  0  0  0  0  0  0  0  0
    1.8167    2.1615    2.8978 H   0  0  0  0  0  0  0  0  0  0  0  0
    2.9837    2.4176    0.5855 H   0  0  0  0  0  0  0  0  0  0  0  0
    1.5227    4.3202    0.1479 H   0  0  0  0  0  0  0  0  0  0  0  0
    1.0532    1.8869   -0.3440 C   0  0  0  0  0  0  0  0  0  0  0  0
    0.8904    2.5462   -1.1854 H   0  0  0  0  0  0  0  0  0  0  0  0
   -1.0328    2.2547    0.1212 H   0  0  0  0  0  0  0  0  0  0  0  0
   -2.6626    0.7099   -0.0711 H   0  0  0  0  0  0  0  0  0  0  0  0
   -3.3214   -0.6038   -1.7607 H   0  0  0  0  0  0  0  0  0  0  0  0
   -2.3934   -1.8219   -0.9702 H   0  0  0  0  0  0  0  0  0  0  0  0
   -2.7786   -2.4292   -3.5005 H   0  0  0  0  0  0  0  0  0  0  0  0
   -1.5139   -3.1056   -6.0242 S   0  0  0  0  0  0  0  0  0  0  0  0
    0.1329    0.3144   -2.0534 H   0  0  0  0  0  0  0  0  0  0  0  0
    1.3638    0.0624   -4.1468 H   0  0  0  0  0  0  0  0  0  0  0  0
    2.2575   -0.4024   -6.2752 H   0  0  0  0  0  0  0  0  0  0  0  0
    0.2419   -3.1162   -7.6736 H   0  0  0  0  0  0  0  0  0  0  0  0
  1  2  1  0
  1 29  1  0
  1 30  1  0
  1 31  1  0
  2  3  1  0
  2  4  1  0
  2  5  1  0
  3 32  1  0
  3 33  1  0
  3 34  1  0
  4 35  1  0
  4 36  1  0
  4 37  1  0
  5  6  1  0
  5 38  1  0
  5 39  1  0
  6  7  2  0
  6  8  1  0
  8  9  1  0
  8 13  1  0
  9 10  1  0
  9 40  1  0
  9 41  1  0
 10 11  1  0
 10 42  1  0
 10 44  1  0
 11 43  1  0
 12 44  1  0
 13 14  1  0
 13 44  1  0
 13 46  1  0
 14 15  2  0
 14 16  1  0
 16 17  1  0
 16 47  1  0
 17 18  1  0
 17 48  1  0
 17 49  1  0
 18 19  2  0
 18 21  1  0
 19 20  1  0
 19 50  1  0
 20 23  2  0
 20 51  1  0
 21 22  2  0
 21 52  1  0
 22 23  1  0
 22 53  1  0
 23 24  1  0
 24 26  1  0
 24 28  2  0
 25 26  1  0
 26 27  1  0
 26 54  1  0
 28 51  1  0
 28 55  1  0
 44 45  1  0
M  END
>  <template_idx>  (7) 
4w9c_ligand

>  <smiles>  (7) 
Cc1csc2cc(CNC(=O)C3CC(O)CN3C(=O)CC(C)(C)C)ccc12

>  <qed>  (7) 
0.8448744166420794

$$$$
sample6
     RDKit          3D

 55 57  0  0  0  0  0  0  0  0999 V2000
    0.1789   -0.2243    6.3604 C   0  0  0  0  0  0  0  0  0  0  0  0
   -0.2501   -0.4179    4.8807 C   0  0  0  0  0  0  0  0  0  0  0  0
   -1.6760   -0.9881    4.7492 C   0  0  0  0  0  0  0  0  0  0  0  0
    0.7735   -1.3435    4.2274 C   0  0  0  0  0  0  0  0  0  0  0  0
   -0.3337    0.9627    4.1450 C   0  0  0  0  0  0  0  0  0  0  0  0
   -0.4218    0.7155    2.8205 O   0  0  0  0  0  0  0  0  0  0  0  0
   -1.7928    2.0618    1.5629 H   0  0  0  0  0  0  0  0  0  0  0  0
    0.1413    1.7763    2.2728 N   0  0  0  0  0  0  0  0  0  0  0  0
    1.5450    1.6797    2.0000 C   0  0  0  0  0  0  0  0  0  0  0  0
    1.8357    1.8960    0.4961 C   0  0  0  0  0  0  0  0  0  0  0  0
    2.0031    3.3132    0.2310 O   0  0  0  0  0  0  0  0  0  0  0  0
    0.7697    1.2707   -0.4643 C   0  0  0  0  0  0  0  0  0  0  0  0
   -0.7600    2.1104    1.2293 C   0  0  0  0  0  0  0  0  0  0  0  0
   -0.5380    0.9798    0.2220 C   0  0  0  0  0  0  0  0  0  0  0  0
   -0.4744    0.0032    0.8071 H   0  0  0  0  0  0  0  0  0  0  0  0
   -1.6784    0.8331   -0.6483 C   0  0  0  0  0  0  0  0  0  0  0  0
   -1.8829   -0.4496   -1.3537 C   0  0  0  0  0  0  0  0  0  0  0  0
   -1.2356   -0.6627   -2.6948 C   0  0  0  0  0  0  0  0  0  0  0  0
   -1.6132   -1.8023   -3.3655 C   0  0  0  0  0  0  0  0  0  0  0  0
   -1.0497   -2.0859   -4.6097 C   0  0  0  0  0  0  0  0  0  0  0  0
   -0.3342    0.1767   -3.2597 C   0  0  0  0  0  0  0  0  0  0  0  0
    0.2328   -0.1329   -4.4930 C   0  0  0  0  0  0  0  0  0  0  0  0
   -0.0759   -1.2738   -5.1379 C   0  0  0  0  0  0  0  0  0  0  0  0
    0.6130   -1.5992   -6.3095 C   0  0  0  0  0  0  0  0  0  0  0  0
    1.3344   -0.6537   -6.8638 O   0  0  0  0  0  0  0  0  0  0  0  0
    2.1224   -1.2404   -7.7941 C   0  0  0  0  0  0  0  0  0  0  0  0
    1.8505   -2.5209   -7.9370 N   0  0  0  0  0  0  0  0  0  0  0  0
    0.8676   -2.7681   -7.0269 C   0  0  0  0  0  0  0  0  0  0  0  0
    0.1601   -1.1724    6.8192 H   0  0  0  0  0  0  0  0  0  0  0  0
   -0.4975    0.4703    6.7870 H   0  0  0  0  0  0  0  0  0  0  0  0
    1.1781    0.1895    6.3712 H   0  0  0  0  0  0  0  0  0  0  0  0
   -1.9413   -0.9875    3.6435 H   0  0  0  0  0  0  0  0  0  0  0  0
   -2.3605   -0.3341    5.2719 H   0  0  0  0  0  0  0  0  0  0  0  0
   -1.6912   -1.9834    5.1649 H   0  0  0  0  0  0  0  0  0  0  0  0
    1.8121   -0.9300    4.3828 H   0  0  0  0  0  0  0  0  0  0  0  0
    0.5615   -1.4156    3.1335 H   0  0  0  0  0  0  0  0  0  0  0  0
    0.6980   -2.3243    4.7039 H   0  0  0  0  0  0  0  0  0  0  0  0
   -1.2319    1.5321    4.5091 H   0  0  0  0  0  0  0  0  0  0  0  0
    0.5182    1.6542    4.4710 H   0  0  0  0  0  0  0  0  0  0  0  0
    1.9580    0.6576    2.3393 H   0  0  0  0  0  0  0  0  0  0  0  0
    2.0430    2.4604    2.5948 H   0  0  0  0  0  0  0  0  0  0  0  0
    2.8014    1.4574    0.2929 H   0  0  0  0  0  0  0  0  0  0  0  0
    1.4863    3.7910    0.8434 H   0  0  0  0  0  0  0  0  0  0  0  0
    1.1076    0.3551   -0.9372 H   0  0  0  0  0  0  0  0  0  0  0  0
    0.5830    2.0016   -1.2195 H   0  0  0  0  0  0  0  0  0  0  0  0
   -0.5805    3.1512    0.8367 H   0  0  0  0  0  0  0  0  0  0  0  0
   -2.5343    1.7683   -0.7300 O   0  0  0  0  0  0  0  0  0  0  0  0
   -2.9744   -0.5334   -1.5499 H   0  0  0  0  0  0  0  0  0  0  0  0
   -1.6055   -1.2547   -0.6941 H   0  0  0  0  0  0  0  0  0  0  0  0
   -2.4031   -2.4790   -2.9966 H   0  0  0  0  0  0  0  0  0  0  0  0
   -1.4245   -2.9271   -5.1933 H   0  0  0  0  0  0  0  0  0  0  0  0
   -0.1191    1.1397   -2.8011 H   0  0  0  0  0  0  0  0  0  0  0  0
    0.9411    0.5672   -4.9382 H   0  0  0  0  0  0  0  0  0  0  0  0
    2.9524   -0.7665   -8.2036 H   0  0  0  0  0  0  0  0  0  0  0  0
    0.4118   -3.7030   -6.9478 H   0  0  0  0  0  0  0  0  0  0  0  0
  1  2  1  0
  1 29  1  0
  1 30  1  0
  1 31  1  0
  2  3  1  0
  2  4  1  0
  2  5  1  0
  3 32  1  0
  3 33  1  0
  3 34  1  0
  4 35  1  0
  4 36  1  0
  4 37  1  0
  5  6  1  0
  5 38  1  0
  5 39  1  0
  6  8  1  0
  7 13  1  0
  8  9  1  0
  8 13  1  0
  9 10  1  0
  9 40  1  0
  9 41  1  0
 10 11  1  0
 10 12  1  0
 10 42  1  0
 11 43  1  0
 12 14  1  0
 12 44  1  0
 12 45  1  0
 13 14  1  0
 13 46  1  0
 14 15  1  0
 14 16  1  0
 16 17  1  0
 16 47  2  0
 17 18  1  0
 17 48  1  0
 17 49  1  0
 18 19  2  0
 18 21  1  0
 19 20  1  0
 19 50  1  0
 20 23  2  0
 20 51  1  0
 21 22  2  0
 21 52  1  0
 22 23  1  0
 22 53  1  0
 23 24  1  0
 24 25  1  0
 24 28  2  0
 25 26  1  0
 26 27  2  0
 26 54  1  0
 27 28  1  0
 28 55  1  0
M  END
>  <template_idx>  (8) 
4w9c_ligand

>  <smiles>  (8) 
CC(C)(C)CON1CC(O)CC(C(=O)Cc2ccc(-c3cnco3)cc2)C1

>  <qed>  (8) 
0.8396474403760829

$$$$
sample7
     RDKit          3D

 55 57  0  0  0  0  0  0  0  0999 V2000
    0.4415   -0.5801    5.9692 C   0  0  0  0  0  0  0  0  0  0  0  0
   -0.0738   -0.3780    4.5024 C   0  0  0  0  0  0  0  0  0  0  0  0
   -1.4724   -0.9607    4.3224 C   0  0  0  0  0  0  0  0  0  0  0  0
    0.8986   -1.0902    3.5678 C   0  0  0  0  0  0  0  0  0  0  0  0
   -0.1359    1.1001    4.1893 C   0  0  0  0  0  0  0  0  0  0  0  0
   -0.7209    1.4074    2.8650 C   0  0  0  0  0  0  0  0  0  0  0  0
   -1.9100    1.8055    2.7246 O   0  0  0  0  0  0  0  0  0  0  0  0
    0.1417    1.3419    1.8678 N   0  0  0  0  0  0  0  0  0  0  0  0
    2.2351    2.3136    1.9450 C   0  0  0  0  0  0  0  0  0  0  0  0
    1.6826    3.2277    0.8409 C   0  0  0  0  0  0  0  0  0  0  0  0
    0.9805    3.9218    1.2670 H   0  0  0  0  0  0  0  0  0  0  0  0
    0.9362    2.3002   -0.1527 C   0  0  0  0  0  0  0  0  0  0  0  0
   -0.2593    1.6218    0.5698 C   0  0  0  0  0  0  0  0  0  0  0  0
   -0.7165    0.3054    0.0369 C   0  0  0  0  0  0  0  0  0  0  0  0
   -0.1333   -0.6865    0.2364 O   0  0  0  0  0  0  0  0  0  0  0  0
   -2.0582    0.3229   -0.5418 C   0  0  0  0  0  0  0  0  0  0  0  0
   -2.3682   -0.8302   -1.4682 C   0  0  0  0  0  0  0  0  0  0  0  0
   -1.5772   -0.9174   -2.7180 N   0  0  0  0  0  0  0  0  0  0  0  0
   -2.2071   -1.6329   -3.6927 C   0  0  0  0  0  0  0  0  0  0  0  0
   -1.3762   -1.8267   -4.8503 C   0  0  0  0  0  0  0  0  0  0  0  0
   -0.3275   -0.4860   -2.7837 C   0  0  0  0  0  0  0  0  0  0  0  0
    0.3843   -0.5320   -3.9472 C   0  0  0  0  0  0  0  0  0  0  0  0
   -0.1749   -1.2929   -4.9439 C   0  0  0  0  0  0  0  0  0  0  0  0
    0.5913   -1.5322   -6.0167 N   0  0  0  0  0  0  0  0  0  0  0  0
    1.7252   -0.8009   -6.1794 N   0  0  0  0  0  0  0  0  0  0  0  0
    2.3116   -1.4325   -7.1919 C   0  0  0  0  0  0  0  0  0  0  0  0
    1.6278   -2.4579   -7.6895 N   0  0  0  0  0  0  0  0  0  0  0  0
    0.5178   -2.4717   -6.9835 C   0  0  0  0  0  0  0  0  0  0  0  0
    0.4767   -1.6381    6.1831 H   0  0  0  0  0  0  0  0  0  0  0  0
   -0.1971   -0.0696    6.6273 H   0  0  0  0  0  0  0  0  0  0  0  0
    1.4588   -0.1419    6.0437 H   0  0  0  0  0  0  0  0  0  0  0  0
   -1.7968   -0.8974    3.2179 H   0  0  0  0  0  0  0  0  0  0  0  0
   -2.1757   -0.3693    4.9041 H   0  0  0  0  0  0  0  0  0  0  0  0
   -1.4968   -1.9863    4.6387 H   0  0  0  0  0  0  0  0  0  0  0  0
    1.9543   -0.7284    3.7180 H   0  0  0  0  0  0  0  0  0  0  0  0
    0.6379   -0.9818    2.4802 H   0  0  0  0  0  0  0  0  0  0  0  0
    0.8928   -2.1541    3.8328 H   0  0  0  0  0  0  0  0  0  0  0  0
    0.8576    1.5984    4.3058 H   0  0  0  0  0  0  0  0  0  0  0  0
   -0.7997    1.5629    4.9531 H   0  0  0  0  0  0  0  0  0  0  0  0
    1.4406    1.1035    2.1076 O   0  0  0  0  0  0  0  0  0  0  0  0
    2.2890    2.8402    2.9072 H   0  0  0  0  0  0  0  0  0  0  0  0
    3.2401    1.9924    1.7206 H   0  0  0  0  0  0  0  0  0  0  0  0
    2.4517    3.8010    0.3422 H   0  0  0  0  0  0  0  0  0  0  0  0
    1.5882    1.5303   -0.5178 H   0  0  0  0  0  0  0  0  0  0  0  0
    0.5633    2.8919   -0.9827 H   0  0  0  0  0  0  0  0  0  0  0  0
   -1.1226    2.3029    0.6222 H   0  0  0  0  0  0  0  0  0  0  0  0
   -2.8592    1.1583   -0.2381 O   0  0  0  0  0  0  0  0  0  0  0  0
   -3.4050   -0.7675   -1.7631 H   0  0  0  0  0  0  0  0  0  0  0  0
   -2.2516   -1.7804   -0.9216 H   0  0  0  0  0  0  0  0  0  0  0  0
   -3.3844   -2.0421   -3.5778 O   0  0  0  0  0  0  0  0  0  0  0  0
   -1.7956   -2.5377   -5.5849 H   0  0  0  0  0  0  0  0  0  0  0  0
    0.1681   -0.1111   -1.9446 H   0  0  0  0  0  0  0  0  0  0  0  0
    1.3292   -0.0273   -4.1477 H   0  0  0  0  0  0  0  0  0  0  0  0
    3.2733   -1.1831   -7.5274 H   0  0  0  0  0  0  0  0  0  0  0  0
   -0.3000   -3.1248   -7.1437 H   0  0  0  0  0  0  0  0  0  0  0  0
  1  2  1  0
  1 29  1  0
  1 30  1  0
  1 31  1  0
  2  3  1  0
  2  4  1  0
  2  5  1  0
  3 32  1  0
  3 33  1  0
  3 34  1  0
  4 35  1  0
  4 36  1  0
  4 37  1  0
  5  6  1  0
  5 38  1  0
  5 39  1  0
  6  7  2  0
  6  8  1  0
  8 13  1  0
  8 40  1  0
  9 10  1  0
  9 40  1  0
  9 41  1  0
  9 42  1  0
 10 11  1  0
 10 12  1  0
 10 43  1  0
 12 13  1  0
 12 44  1  0
 12 45  1  0
 13 14  1  0
 13 46  1  0
 14 15  2  0
 14 16  1  0
 16 17  1  0
 16 47  2  0
 17 18  1  0
 17 48  1  0
 17 49  1  0
 18 19  1  0
 18 21  1  0
 19 20  1  0
 19 50  2  0
 20 23  2  0
 20 51  1  0
 21 22  2  0
 21 52  1  0
 22 23  1  0
 22 53  1  0
 23 24  1  0
 24 25  1  0
 24 28  1  0
 25 26  2  0
 26 27  1  0
 26 54  1  0
 27 28  2  0
 28 55  1  0
M  END
>  <template_idx>  (9) 
4w9c_ligand

>  <smiles>  (9) 
CC(C)(C)CC(=O)N1OCCCC1C(=O)C(=O)Cn1ccc(-n2cncn2)cc1=O

>  <qed>  (9) 
0.6443194202582813

$$$$
sample8
     RDKit          3D

 55 57  0  0  0  0  0  0  0  0999 V2000
    0.2371   -0.7099    6.0012 C   0  0  0  0  0  0  0  0  0  0  0  0
   -0.2112   -0.3267    4.5403 C   0  0  0  0  0  0  0  0  0  0  0  0
   -1.7063   -0.5796    4.3196 C   0  0  0  0  0  0  0  0  0  0  0  0
    0.5763   -1.1883    3.5591 C   0  0  0  0  0  0  0  0  0  0  0  0
    0.0526    1.1420    4.3248 C   0  0  0  0  0  0  0  0  0  0  0  0
   -0.4505    1.6845    3.0482 C   0  0  0  0  0  0  0  0  0  0  0  0
   -1.5548    2.2889    2.9921 O   0  0  0  0  0  0  0  0  0  0  0  0
    0.3706    1.6281    2.0227 N   0  0  0  0  0  0  0  0  0  0  0  0
    1.7789    1.4689    1.9692 C   0  0  0  0  0  0  0  0  0  0  0  0
    2.1882    2.1348    0.6497 C   0  0  0  0  0  0  0  0  0  0  0  0
    2.3974    3.1703    0.8111 H   0  0  0  0  0  0  0  0  0  0  0  0
    0.9521    1.9609   -0.2551 C   0  0  0  0  0  0  0  0  0  0  0  0
   -0.2128    1.7416    0.7366 C   0  0  0  0  0  0  0  0  0  0  0  0
   -0.9882    0.5163    0.4489 C   0  0  0  0  0  0  0  0  0  0  0  0
   -0.9621   -0.5422    1.1109 O   0  0  0  0  0  0  0  0  0  0  0  0
   -1.8202    0.7169   -0.5745 N   0  0  0  0  0  0  0  0  0  0  0  0
   -2.2352   -0.4039   -1.3655 C   0  0  0  0  0  0  0  0  0  0  0  0
   -1.3779   -0.6972   -2.5485 C   0  0  0  0  0  0  0  0  0  0  0  0
   -1.5360   -1.9049   -3.1439 C   0  0  0  0  0  0  0  0  0  0  0  0
   -0.8491   -2.1820   -4.3074 C   0  0  0  0  0  0  0  0  0  0  0  0
   -0.4517    0.1694   -3.0092 C   0  0  0  0  0  0  0  0  0  0  0  0
    0.2704   -0.1294   -4.1316 C   0  0  0  0  0  0  0  0  0  0  0  0
    0.0313   -1.2841   -4.8276 C   0  0  0  0  0  0  0  0  0  0  0  0
    0.6849   -1.5822   -6.0481 C   0  0  0  0  0  0  0  0  0  0  0  0
    1.7848   -0.8659   -6.3982 N   0  0  0  0  0  0  0  0  0  0  0  0
    2.3829   -1.3246   -7.4696 C   0  0  0  0  0  0  0  0  0  0  0  0
    1.5935   -2.6726   -8.2856 S   0  0  0  0  0  0  0  0  0  0  0  0
    0.4356   -2.5678   -6.9472 C   0  0  0  0  0  0  0  0  0  0  0  0
   -0.0516   -1.6925    6.1873 H   0  0  0  0  0  0  0  0  0  0  0  0
   -0.1864   -0.0289    6.6748 H   0  0  0  0  0  0  0  0  0  0  0  0
    1.3243   -0.6278    6.0531 H   0  0  0  0  0  0  0  0  0  0  0  0
   -1.9664   -0.3626    3.2458 H   0  0  0  0  0  0  0  0  0  0  0  0
   -2.2881    0.0978    4.9604 H   0  0  0  0  0  0  0  0  0  0  0  0
   -1.9126   -1.6147    4.5707 H   0  0  0  0  0  0  0  0  0  0  0  0
    1.6631   -0.9759    3.6257 H   0  0  0  0  0  0  0  0  0  0  0  0
    0.2387   -0.9879    2.5087 H   0  0  0  0  0  0  0  0  0  0  0  0
    0.3895   -2.2459    3.8069 H   0  0  0  0  0  0  0  0  0  0  0  0
    1.1224    1.3609    4.4944 H   0  0  0  0  0  0  0  0  0  0  0  0
   -0.5227    1.6979    5.0942 H   0  0  0  0  0  0  0  0  0  0  0  0
    1.9760    0.3915    1.9207 H   0  0  0  0  0  0  0  0  0  0  0  0
    2.2990    1.9041    2.8355 H   0  0  0  0  0  0  0  0  0  0  0  0
    3.0722    1.6438    0.2189 H   0  0  0  0  0  0  0  0  0  0  0  0
    0.5073    3.7903   -0.3988 H   0  0  0  0  0  0  0  0  0  0  0  0
    1.0764    1.0639   -0.8841 H   0  0  0  0  0  0  0  0  0  0  0  0
    0.6987    3.0342   -1.0877 O   0  0  0  0  0  0  0  0  0  0  0  0
   -0.9188    2.5918    0.7910 H   0  0  0  0  0  0  0  0  0  0  0  0
   -2.2497    1.6641   -0.6429 H   0  0  0  0  0  0  0  0  0  0  0  0
   -2.4205   -1.2259   -0.6474 H   0  0  0  0  0  0  0  0  0  0  0  0
   -3.1852   -0.4079   -1.6286 H   0  0  0  0  0  0  0  0  0  0  0  0
   -2.6157   -3.0983   -2.4837 Cl  0  0  0  0  0  0  0  0  0  0  0  0
   -1.0785   -3.1175   -4.8051 H   0  0  0  0  0  0  0  0  0  0  0  0
   -0.2864    1.1508   -2.4666 H   0  0  0  0  0  0  0  0  0  0  0  0
    0.9894    0.5741   -4.5145 H   0  0  0  0  0  0  0  0  0  0  0  0
    3.2797   -1.0348   -7.7767 H   0  0  0  0  0  0  0  0  0  0  0  0
   -0.3347   -3.2061   -6.8747 H   0  0  0  0  0  0  0  0  0  0  0  0
  1  2  1  0
  1 29  1  0
  1 30  1  0
  1 31  1  0
  2  3  1  0
  2  4  1  0
  2  5  1  0
  3 32  1  0
  3 33  1  0
  3 34  1  0
  4 35  1  0
  4 36  1  0
  4 37  1  0
  5  6  1  0
  5 38  1  0
  5 39  1  0
  6  7  2  0
  6  8  1  0
  8  9  1  0
  8 13  1  0
  9 10  1  0
  9 40  1  0
  9 41  1  0
 10 11  1  0
 10 12  1  0
 10 42  1  0
 12 13  1  0
 12 44  1  0
 12 45  1  0
 13 14  1  0
 13 46  1  0
 14 15  2  0
 14 16  1  0
 16 17  1  0
 16 47  1  0
 17 18  1  0
 17 48  1  0
 17 49  1  0
 18 19  2  0
 18 21  1  0
 19 20  1  0
 19 50  1  0
 20 23  2  0
 20 51  1  0
 21 22  2  0
 21 52  1  0
 22 23  1  0
 22 53  1  0
 23 24  1  0
 24 25  1  0
 24 28  2  0
 25 26  2  0
 26 27  1  0
 26 54  1  0
 27 28  1  0
 28 55  1  0
 43 45  1  0
M  END
>  <template_idx>  (10) 
4w9c_ligand

>  <smiles>  (10) 
CC(C)(C)CC(=O)N1CCC(O)C1C(=O)NCc1ccc(-c2cscn2)cc1Cl

>  <qed>  (10) 
0.7527472424718828

$$$$
sample9
     RDKit          3D

 55 57  0  0  0  0  0  0  0  0999 V2000
    0.5294   -0.2879    6.2955 C   0  0  0  0  0  0  0  0  0  0  0  0
   -0.1123   -0.3103    4.9457 N   0  0  0  0  0  0  0  0  0  0  0  0
   -1.5118   -0.8749    5.1129 C   0  0  0  0  0  0  0  0  0  0  0  0
    0.6867   -1.1408    4.0059 C   0  0  0  0  0  0  0  0  0  0  0  0
   -0.2802    1.1018    4.4263 C   0  0  0  0  0  0  0  0  0  0  0  0
   -0.6611    1.1406    2.9931 C   0  0  0  0  0  0  0  0  0  0  0  0
   -1.6774    0.9706    2.7843 H   0  0  0  0  0  0  0  0  0  0  0  0
    0.1284    1.4663    2.0511 C   0  0  0  0  0  0  0  0  0  0  0  0
    1.5641    1.7538    2.2055 C   0  0  0  0  0  0  0  0  0  0  0  0
    1.9740    2.5101    0.8965 C   0  0  0  0  0  0  0  0  0  0  0  0
    1.7657    3.9044    0.9800 O   0  0  0  0  0  0  0  0  0  0  0  0
    0.9773    1.9472   -0.1552 C   0  0  0  0  0  0  0  0  0  0  0  0
   -0.3656    1.7093    0.6476 C   0  0  0  0  0  0  0  0  0  0  0  0
   -1.2912    0.5915    0.2352 C   0  0  0  0  0  0  0  0  0  0  0  0
   -1.8821   -0.1714    1.0079 O   0  0  0  0  0  0  0  0  0  0  0  0
   -1.5424    0.5664   -1.0925 N   0  0  0  0  0  0  0  0  0  0  0  0
   -2.1889   -0.5179   -1.8180 C   0  0  0  0  0  0  0  0  0  0  0  0
   -1.3657   -0.8412   -3.0064 C   0  0  0  0  0  0  0  0  0  0  0  0
   -1.9181   -1.7139   -3.9257 C   0  0  0  0  0  0  0  0  0  0  0  0
   -1.2284   -1.9896   -5.0646 C   0  0  0  0  0  0  0  0  0  0  0  0
   -0.1001   -0.3468   -3.2113 C   0  0  0  0  0  0  0  0  0  0  0  0
    0.5472   -0.6108   -4.3956 C   0  0  0  0  0  0  0  0  0  0  0  0
   -0.0019   -1.4210   -5.2903 C   0  0  0  0  0  0  0  0  0  0  0  0
    0.6826   -1.6646   -6.3577 N   0  0  0  0  0  0  0  0  0  0  0  0
    1.9266   -1.1447   -6.4453 N   0  0  0  0  0  0  0  0  0  0  0  0
    2.3799   -1.6161   -7.5664 C   0  0  0  0  0  0  0  0  0  0  0  0
    1.4948   -2.3715   -8.2571 N   0  0  0  0  0  0  0  0  0  0  0  0
    0.4406   -2.4213   -7.4417 C   0  0  0  0  0  0  0  0  0  0  0  0
    0.5923   -1.3237    6.6468 H   0  0  0  0  0  0  0  0  0  0  0  0
   -0.0820    0.3299    6.9510 H   0  0  0  0  0  0  0  0  0  0  0  0
    1.5425    0.1395    6.1556 H   0  0  0  0  0  0  0  0  0  0  0  0
   -2.0182   -0.5173    5.9368 H   0  0  0  0  0  0  0  0  0  0  0  0
   -2.1834   -0.4044    4.2533 H   0  0  0  0  0  0  0  0  0  0  0  0
   -1.4497   -1.9884    5.1957 H   0  0  0  0  0  0  0  0  0  0  0  0
    1.6981   -0.6886    3.7888 H   0  0  0  0  0  0  0  0  0  0  0  0
    0.1643   -1.3122    3.0148 H   0  0  0  0  0  0  0  0  0  0  0  0
    0.7982   -2.1243    4.5034 H   0  0  0  0  0  0  0  0  0  0  0  0
    0.6872    1.7013    4.5742 H   0  0  0  0  0  0  0  0  0  0  0  0
   -1.0883    1.5891    5.0283 H   0  0  0  0  0  0  0  0  0  0  0  0
    2.1294    0.8220    2.3220 H   0  0  0  0  0  0  0  0  0  0  0  0
    1.8293    2.3905    3.0855 H   0  0  0  0  0  0  0  0  0  0  0  0
    2.9824    2.3378    0.6968 H   0  0  0  0  0  0  0  0  0  0  0  0
    0.8224    4.0395    1.2386 H   0  0  0  0  0  0  0  0  0  0  0  0
    1.3223    0.9718   -0.5170 H   0  0  0  0  0  0  0  0  0  0  0  0
    0.8926    2.6255   -1.0117 H   0  0  0  0  0  0  0  0  0  0  0  0
   -0.9993    2.6291    0.5596 H   0  0  0  0  0  0  0  0  0  0  0  0
   -1.3217    1.3731   -1.6251 H   0  0  0  0  0  0  0  0  0  0  0  0
   -3.1599   -0.2059   -2.1343 H   0  0  0  0  0  0  0  0  0  0  0  0
   -2.3357   -1.3713   -1.1827 H   0  0  0  0  0  0  0  0  0  0  0  0
   -2.8938   -2.2080   -3.7236 H   0  0  0  0  0  0  0  0  0  0  0  0
   -1.6803   -2.7488   -5.7250 H   0  0  0  0  0  0  0  0  0  0  0  0
    0.3971    0.2706   -2.4788 H   0  0  0  0  0  0  0  0  0  0  0  0
    1.4768   -0.0921   -4.6515 H   0  0  0  0  0  0  0  0  0  0  0  0
    3.3713   -1.5015   -7.8858 H   0  0  0  0  0  0  0  0  0  0  0  0
   -0.4637   -2.9507   -7.5753 H   0  0  0  0  0  0  0  0  0  0  0  0
  1  2  1  0
  1 29  1  0
  1 30  1  0
  1 31  1  0
  2  3  1  0
  2  4  1  0
  2  5  1  0
  3 32  1  0
  3 33  1  0
  3 34  1  0
  4 35  1  0
  4 36  1  0
  4 37  1  0
  5  6  1  0
  5 38  1  0
  5 39  1  0
  6  7  1  0
  6  8  2  3
  8  9  1  0
  8 13  1  0
  9 10  1  0
  9 40  1  0
  9 41  1  0
 10 11  1  0
 10 12  1  0
 10 42  1  0
 11 43  1  0
 12 13  1  0
 12 44  1  0
 12 45  1  0
 13 14  1  0
 13 46  1  0
 14 15  2  0
 14 16  1  0
 16 17  1  0
 16 47  1  0
 17 18  1  0
 17 48  1  0
 17 49  1  0
 18 19  2  0
 18 21  1  0
 19 20  1  0
 19 50  1  0
 20 23  2  0
 20 51  1  0
 21 22  2  0
 21 52  1  0
 22 23  1  0
 22 53  1  0
 23 24  1  0
 24 25  1  0
 24 28  1  0
 25 26  2  0
 26 27  1  0
 26 54  1  0
 27 28  2  0
 28 55  1  0
M  CHG  1   2   1
M  END
>  <template_idx>  (11) 
4w9c_ligand

>  <smiles>  (11) 
C[N+](C)(C)CC=C1CC(O)CC1C(=O)NCc1ccc(-n2cncn2)cc1

>  <qed>  (11) 
0.5931200721395885

$$$$
sample10
     RDKit          3D

 55 58  0  0  0  0  0  0  0  0999 V2000
    0.5024   -0.2200    6.3239 C   0  0  0  0  0  0  0  0  0  0  0  0
   -0.1009   -0.2451    4.8943 C   0  0  0  0  0  0  0  0  0  0  0  0
   -1.4468   -1.0224    4.8550 C   0  0  0  0  0  0  0  0  0  0  0  0
    0.8875   -0.9570    3.9559 C   0  0  0  0  0  0  0  0  0  0  0  0
   -0.4425    1.2032    4.5195 C   0  0  0  0  0  0  0  0  0  0  0  0
   -1.0598    1.2908    3.1657 C   0  0  0  0  0  0  0  0  0  0  0  0
   -2.2955    1.3354    2.9699 O   0  0  0  0  0  0  0  0  0  0  0  0
   -0.1985    1.3950    2.1958 N   0  0  0  0  0  0  0  0  0  0  0  0
    1.1251    1.4318    2.0249 C   0  0  0  0  0  0  0  0  0  0  0  0
    0.9280    1.8710    0.5604 C   0  0  0  0  0  0  0  0  0  0  0  0
    1.6658    2.8947    0.2343 C   0  0  0  0  0  0  0  0  0  0  0  0
    1.3040    2.0562   -0.8722 C   0  0  0  0  0  0  0  0  0  0  0  0
   -0.5322    1.6045    0.8299 C   0  0  0  0  0  0  0  0  0  0  0  0
   -1.0836    0.3924    0.2367 C   0  0  0  0  0  0  0  0  0  0  0  0
   -0.9636   -0.7443    0.7877 O   0  0  0  0  0  0  0  0  0  0  0  0
   -1.7985    0.6066   -0.8751 N   0  0  0  0  0  0  0  0  0  0  0  0
   -2.2533   -0.4507   -1.7297 C   0  0  0  0  0  0  0  0  0  0  0  0
   -1.3664   -0.7587   -2.9020 C   0  0  0  0  0  0  0  0  0  0  0  0
   -1.6419   -1.9117   -3.6111 C   0  0  0  0  0  0  0  0  0  0  0  0
   -0.9093   -2.2160   -4.7492 C   0  0  0  0  0  0  0  0  0  0  0  0
   -0.3264    0.0373   -3.2863 C   0  0  0  0  0  0  0  0  0  0  0  0
    0.3802   -0.2832   -4.4374 C   0  0  0  0  0  0  0  0  0  0  0  0
    0.0942   -1.3714   -5.1588 C   0  0  0  0  0  0  0  0  0  0  0  0
    0.8122   -1.6576   -6.2564 N   0  0  0  0  0  0  0  0  0  0  0  0
    1.8531   -0.8515   -6.5808 N   0  0  0  0  0  0  0  0  0  0  0  0
    2.4725   -1.4907   -7.5813 C   0  0  0  0  0  0  0  0  0  0  0  0
    1.8581   -2.5844   -7.9751 N   0  0  0  0  0  0  0  0  0  0  0  0
    0.8058   -2.6624   -7.1625 C   0  0  0  0  0  0  0  0  0  0  0  0
    0.6965   -1.2448    6.6302 H   0  0  0  0  0  0  0  0  0  0  0  0
   -0.1583    0.2584    6.9695 H   0  0  0  0  0  0  0  0  0  0  0  0
    1.4457    0.3533    6.2514 H   0  0  0  0  0  0  0  0  0  0  0  0
   -1.8311   -1.0199    3.8044 H   0  0  0  0  0  0  0  0  0  0  0  0
   -2.1720   -0.5355    5.4901 H   0  0  0  0  0  0  0  0  0  0  0  0
   -1.2931   -2.0244    5.1790 H   0  0  0  0  0  0  0  0  0  0  0  0
    1.8739   -0.4782    3.9384 H   0  0  0  0  0  0  0  0  0  0  0  0
    0.4860   -0.9942    2.8845 H   0  0  0  0  0  0  0  0  0  0  0  0
    1.0226   -1.9893    4.3441 H   0  0  0  0  0  0  0  0  0  0  0  0
    0.6663    2.0963    4.6423 O   0  0  0  0  0  0  0  0  0  0  0  0
   -1.2023    1.5716    5.2458 H   0  0  0  0  0  0  0  0  0  0  0  0
    2.1331    1.3856    2.6038 O   0  0  0  0  0  0  0  0  0  0  0  0
    1.4724    1.7843    4.3560 H   0  0  0  0  0  0  0  0  0  0  0  0
    2.7742    2.9188    0.5730 H   0  0  0  0  0  0  0  0  0  0  0  0
    1.2727    3.9027    0.4242 H   0  0  0  0  0  0  0  0  0  0  0  0
    1.9292    1.3225   -1.2891 H   0  0  0  0  0  0  0  0  0  0  0  0
    0.6773    2.4786   -1.5923 H   0  0  0  0  0  0  0  0  0  0  0  0
   -1.1875    2.5101    0.6699 H   0  0  0  0  0  0  0  0  0  0  0  0
   -2.1633    1.5118   -0.9820 H   0  0  0  0  0  0  0  0  0  0  0  0
   -3.2223   -0.1536   -2.1043 H   0  0  0  0  0  0  0  0  0  0  0  0
   -2.4187   -1.3484   -1.1742 H   0  0  0  0  0  0  0  0  0  0  0  0
   -2.4512   -2.5950   -3.2716 H   0  0  0  0  0  0  0  0  0  0  0  0
   -1.1859   -3.1103   -5.3461 H   0  0  0  0  0  0  0  0  0  0  0  0
   -0.0902    0.9485   -2.7295 H   0  0  0  0  0  0  0  0  0  0  0  0
    1.2082    0.3233   -4.7605 H   0  0  0  0  0  0  0  0  0  0  0  0
    3.4142   -1.1836   -7.9465 H   0  0  0  0  0  0  0  0  0  0  0  0
    0.0341   -3.3804   -7.1864 H   0  0  0  0  0  0  0  0  0  0  0  0
  1  2  1  0
  1 29  1  0
  1 30  1  0
  1 31  1  0
  2  3  1  0
  2  4  1  0
  2  5  1  0
  3 32  1  0
  3 33  1  0
  3 34  1  0
  4 35  1  0
  4 36  1  0
  4 37  1  0
  5  6  1  0
  5 38  1  0
  5 39  1  0
  6  7  2  0
  6  8  1  0
  8  9  1  0
  8 13  1  0
  9 10  1  0
  9 40  2  0
 10 11  1  0
 10 12  1  0
 10 13  1  0
 11 12  1  0
 11 42  1  0
 11 43  1  0
 12 44  1  0
 12 45  1  0
 13 14  1  0
 13 46  1  0
 14 15  2  0
 14 16  1  0
 16 17  1  0
 16 47  1  0
 17 18  1  0
 17 48  1  0
 17 49  1  0
 18 19  2  0
 18 21  1  0
 19 20  1  0
 19 50  1  0
 20 23  2  0
 20 51  1  0
 21 22  2  0
 21 52  1  0
 22 23  1  0
 22 53  1  0
 23 24  1  0
 24 25  1  0
 24 28  1  0
 25 26  2  0
 26 27  1  0
 26 54  1  0
 27 28  2  0
 28 55  1  0
 38 41  1  0
M  END
>  <template_idx>  (12) 
4w9c_ligand

>  <smiles>  (12) 
CC(C)(C)C(O)C(=O)N1C(=O)C2(CC2)C1C(=O)NCc1ccc(-n2cncn2)cc1

>  <qed>  (12) 
0.703335842260275

$$$$
sample11
     RDKit          3D

 55 57  0  0  0  0  0  0  0  0999 V2000
    0.2144    0.0017    6.0777 C   0  0  0  0  0  0  0  0  0  0  0  0
   -0.3668   -0.1678    4.6575 C   0  0  0  0  0  0  0  0  0  0  0  0
   -1.7177   -0.9038    4.7200 C   0  0  0  0  0  0  0  0  0  0  0  0
    0.6429   -0.9847    3.8567 C   0  0  0  0  0  0  0  0  0  0  0  0
   -0.6964    1.1854    3.9900 C   0  0  0  0  0  0  0  0  0  0  0  0
   -0.8772    1.1299    2.5272 C   0  0  0  0  0  0  0  0  0  0  0  0
   -2.0534    0.9669    2.0738 O   0  0  0  0  0  0  0  0  0  0  0  0
    0.2222    1.4064    1.8525 N   0  0  0  0  0  0  0  0  0  0  0  0
    1.6146    1.4794    2.2186 C   0  0  0  0  0  0  0  0  0  0  0  0
    2.1858    2.4672    1.1717 C   0  0  0  0  0  0  0  0  0  0  0  0
    1.9596    3.8203    1.4715 O   0  0  0  0  0  0  0  0  0  0  0  0
    1.4416    2.0423   -0.0938 C   0  0  0  0  0  0  0  0  0  0  0  0
    0.0473    1.5975    0.4497 C   0  0  0  0  0  0  0  0  0  0  0  0
   -0.4802    0.3375   -0.0226 C   0  0  0  0  0  0  0  0  0  0  0  0
    0.2726   -0.4684    0.0285 H   0  0  0  0  0  0  0  0  0  0  0  0
   -1.7336    0.0709   -0.3447 C   0  0  0  0  0  0  0  0  0  0  0  0
   -2.2206   -0.8702   -1.4234 C   0  0  0  0  0  0  0  0  0  0  0  0
   -1.3967   -1.0068   -2.6587 C   0  0  0  0  0  0  0  0  0  0  0  0
   -2.0120   -1.6045   -3.7396 C   0  0  0  0  0  0  0  0  0  0  0  0
   -1.3461   -1.6988   -4.9364 C   0  0  0  0  0  0  0  0  0  0  0  0
   -0.0968   -0.5927   -2.8005 C   0  0  0  0  0  0  0  0  0  0  0  0
    0.5558   -0.6447   -4.0324 C   0  0  0  0  0  0  0  0  0  0  0  0
   -0.0625   -1.2428   -5.0713 C   0  0  0  0  0  0  0  0  0  0  0  0
    0.6235   -1.4790   -6.2533 C   0  0  0  0  0  0  0  0  0  0  0  0
    1.6727   -0.7284   -6.5416 O   0  0  0  0  0  0  0  0  0  0  0  0
    2.2481   -1.2441   -7.6243 C   0  0  0  0  0  0  0  0  0  0  0  0
    1.6007   -2.2913   -8.0599 N   0  0  0  0  0  0  0  0  0  0  0  0
    0.5320   -2.4351   -7.2273 C   0  0  0  0  0  0  0  0  0  0  0  0
    0.3155   -0.9743    6.5162 H   0  0  0  0  0  0  0  0  0  0  0  0
   -0.4264    0.6133    6.6568 H   0  0  0  0  0  0  0  0  0  0  0  0
    1.1891    0.4686    6.0015 H   0  0  0  0  0  0  0  0  0  0  0  0
   -2.1325   -0.9364    3.6720 H   0  0  0  0  0  0  0  0  0  0  0  0
   -2.4288   -0.3625    5.3445 H   0  0  0  0  0  0  0  0  0  0  0  0
   -1.5672   -1.8830    5.1250 H   0  0  0  0  0  0  0  0  0  0  0  0
    1.6761   -0.5395    3.8603 H   0  0  0  0  0  0  0  0  0  0  0  0
    0.3212   -1.1314    2.7685 H   0  0  0  0  0  0  0  0  0  0  0  0
    0.7065   -1.9832    4.3753 H   0  0  0  0  0  0  0  0  0  0  0  0
   -1.6523    1.5753    4.4870 H   0  0  0  0  0  0  0  0  0  0  0  0
    0.0594    2.0366    4.2735 H   0  0  0  0  0  0  0  0  0  0  0  0
    2.0765    0.4670    2.0452 H   0  0  0  0  0  0  0  0  0  0  0  0
    1.8326    1.8443    3.2225 H   0  0  0  0  0  0  0  0  0  0  0  0
    3.2231    2.3364    1.0841 H   0  0  0  0  0  0  0  0  0  0  0  0
    1.4618    4.3305    0.7940 H   0  0  0  0  0  0  0  0  0  0  0  0
    1.9143    1.1812   -0.5428 H   0  0  0  0  0  0  0  0  0  0  0  0
    1.3890    2.8438   -0.8337 H   0  0  0  0  0  0  0  0  0  0  0  0
   -0.6911    2.4545    0.2407 H   0  0  0  0  0  0  0  0  0  0  0  0
   -2.4916    0.5114    0.2716 H   0  0  0  0  0  0  0  0  0  0  0  0
   -3.2307   -0.5328   -1.7439 H   0  0  0  0  0  0  0  0  0  0  0  0
   -2.3651   -1.8525   -1.0096 H   0  0  0  0  0  0  0  0  0  0  0  0
   -3.0108   -2.0397   -3.6302 H   0  0  0  0  0  0  0  0  0  0  0  0
   -1.8656   -2.1749   -5.7692 H   0  0  0  0  0  0  0  0  0  0  0  0
    0.4719   -0.2130   -1.9853 H   0  0  0  0  0  0  0  0  0  0  0  0
    1.5233   -0.1893   -4.1876 H   0  0  0  0  0  0  0  0  0  0  0  0
    3.1625   -0.8645   -7.9637 H   0  0  0  0  0  0  0  0  0  0  0  0
   -0.2344   -3.1283   -7.3386 H   0  0  0  0  0  0  0  0  0  0  0  0
  1  2  1  0
  1 29  1  0
  1 30  1  0
  1 31  1  0
  2  3  1  0
  2  4  1  0
  2  5  1  0
  3 32  1  0
  3 33  1  0
  3 34  1  0
  4 35  1  0
  4 36  1  0
  4 37  1  0
  5  6  1  0
  5 38  1  0
  5 39  1  0
  6  7  2  0
  6  8  1  0
  8  9  1  0
  8 13  1  0
  9 10  1  0
  9 40  1  0
  9 41  1  0
 10 11  1  0
 10 12  1  0
 10 42  1  0
 11 43  1  0
 12 13  1  0
 12 44  1  0
 12 45  1  0
 13 14  1  0
 13 46  1  0
 14 15  1  0
 14 16  2  3
 16 17  1  0
 16 47  1  0
 17 18  1  0
 17 48  1  0
 17 49  1  0
 18 19  2  0
 18 21  1  0
 19 20  1  0
 19 50  1  0
 20 23  2  0
 20 51  1  0
 21 22  2  0
 21 52  1  0
 22 23  1  0
 22 53  1  0
 23 24  1  0
 24 25  1  0
 24 28  2  0
 25 26  1  0
 26 27  2  0
 26 54  1  0
 27 28  1  0
 28 55  1  0
M  END
>  <template_idx>  (13) 
4w9c_ligand

>  <smiles>  (13) 
CC(C)(C)CC(=O)N1CC(O)CC1C=CCc1ccc(-c2cnco2)cc1

>  <qed>  (13) 
0.8145282706447433

$$$$
sample12
     RDKit          3D

 55 56  0  0  0  0  0  0  0  0999 V2000
    0.4628   -0.0316    5.9109 C   0  0  0  0  0  0  0  0  0  0  0  0
   -0.0178   -0.3333    4.5115 N   0  0  0  0  0  0  0  0  0  0  0  0
   -1.4308   -0.8481    4.5770 C   0  0  0  0  0  0  0  0  0  0  0  0
    0.8394   -1.3909    3.9443 C   0  0  0  0  0  0  0  0  0  0  0  0
    0.0330    0.9826    3.6856 C   0  0  0  0  0  0  0  0  0  0  0  0
   -0.6135    0.7670    2.4195 C   0  0  0  0  0  0  0  0  0  0  0  0
   -1.6801    0.6591    2.7190 H   0  0  0  0  0  0  0  0  0  0  0  0
    0.0215   -0.0790    2.0773 H   0  0  0  0  0  0  0  0  0  0  0  0
    2.7316    1.6639    1.7891 C   0  0  0  0  0  0  0  0  0  0  0  0
    1.6393    2.5343    1.3419 N   0  0  0  0  0  0  0  0  0  0  0  0
    1.8828    3.8049    1.2179 C   0  0  0  0  0  0  0  0  0  0  0  0
    0.5505    1.9705    0.5058 C   0  0  0  0  0  0  0  0  0  0  0  0
   -0.7803    1.4472    1.1091 C   0  0  0  0  0  0  0  0  0  0  0  0
   -1.4691    0.3123    0.3285 C   0  0  0  0  0  0  0  0  0  0  0  0
   -1.5724   -0.8513    0.7537 O   0  0  0  0  0  0  0  0  0  0  0  0
   -2.0588    0.6177   -0.8271 N   0  0  0  0  0  0  0  0  0  0  0  0
   -2.5168   -0.4466   -1.6746 C   0  0  0  0  0  0  0  0  0  0  0  0
   -1.6048   -0.7079   -2.8170 C   0  0  0  0  0  0  0  0  0  0  0  0
   -1.9972   -1.6928   -3.6919 C   0  0  0  0  0  0  0  0  0  0  0  0
   -1.2516   -1.9119   -4.8063 C   0  0  0  0  0  0  0  0  0  0  0  0
   -0.4058   -0.0244   -3.0201 C   0  0  0  0  0  0  0  0  0  0  0  0
    0.3043   -0.2191   -4.1922 C   0  0  0  0  0  0  0  0  0  0  0  0
   -0.1132   -1.1737   -5.0494 C   0  0  0  0  0  0  0  0  0  0  0  0
    0.5629   -1.3809   -6.1400 N   0  0  0  0  0  0  0  0  0  0  0  0
    1.7235   -0.7252   -6.3306 N   0  0  0  0  0  0  0  0  0  0  0  0
    2.2114   -1.3096   -7.3936 C   0  0  0  0  0  0  0  0  0  0  0  0
    1.4293   -2.1810   -7.9680 N   0  0  0  0  0  0  0  0  0  0  0  0
    0.3761   -2.2248   -7.1763 C   0  0  0  0  0  0  0  0  0  0  0  0
    0.3156   -0.9576    6.5346 H   0  0  0  0  0  0  0  0  0  0  0  0
   -0.1028    0.7873    6.2794 H   0  0  0  0  0  0  0  0  0  0  0  0
    1.5276    0.2065    5.8396 H   0  0  0  0  0  0  0  0  0  0  0  0
   -1.7792   -1.2697    3.5388 H   0  0  0  0  0  0  0  0  0  0  0  0
   -2.0588   -0.0763    4.8391 H   0  0  0  0  0  0  0  0  0  0  0  0
   -1.4881   -1.6509    5.3665 H   0  0  0  0  0  0  0  0  0  0  0  0
    1.8700   -1.0099    3.8066 H   0  0  0  0  0  0  0  0  0  0  0  0
    0.4298   -1.8043    3.0181 H   0  0  0  0  0  0  0  0  0  0  0  0
    0.8505   -2.2371    4.6888 H   0  0  0  0  0  0  0  0  0  0  0  0
    1.1182    1.3642    3.5830 H   0  0  0  0  0  0  0  0  0  0  0  0
   -0.4878    1.7192    4.2381 H   0  0  0  0  0  0  0  0  0  0  0  0
    2.3722    0.5990    1.9138 H   0  0  0  0  0  0  0  0  0  0  0  0
    3.0732    2.0764    2.7483 H   0  0  0  0  0  0  0  0  0  0  0  0
    3.5298    1.7211    1.0635 H   0  0  0  0  0  0  0  0  0  0  0  0
    1.9509    4.7652    1.0561 O   0  0  0  0  0  0  0  0  0  0  0  0
    0.9661    1.2063   -0.0188 H   0  0  0  0  0  0  0  0  0  0  0  0
    0.2827    2.8520   -0.1266 H   0  0  0  0  0  0  0  0  0  0  0  0
   -1.4589    2.3522    1.2801 H   0  0  0  0  0  0  0  0  0  0  0  0
   -2.1298    1.5920   -1.0795 H   0  0  0  0  0  0  0  0  0  0  0  0
   -3.4930   -0.2040   -2.0678 H   0  0  0  0  0  0  0  0  0  0  0  0
   -2.6504   -1.3457   -1.1218 H   0  0  0  0  0  0  0  0  0  0  0  0
   -2.9161   -2.2919   -3.5070 H   0  0  0  0  0  0  0  0  0  0  0  0
   -1.6524   -2.6787   -5.5195 H   0  0  0  0  0  0  0  0  0  0  0  0
   -0.0449    0.6822   -2.2659 H   0  0  0  0  0  0  0  0  0  0  0  0
    1.1928    0.3632   -4.4638 H   0  0  0  0  0  0  0  0  0  0  0  0
    3.9976   -1.1331   -8.1171 Br  0  0  0  0  0  0  0  0  0  0  0  0
   -0.4706   -2.8548   -7.3109 H   0  0  0  0  0  0  0  0  0  0  0  0
  1  2  1  0
  1 29  1  0
  1 30  1  0
  1 31  1  0
  2  3  1  0
  2  4  1  0
  2  5  1  0
  3 32  1  0
  3 33  1  0
  3 34  1  0
  4 35  1  0
  4 36  1  0
  4 37  1  0
  5  6  1  0
  5 38  1  0
  5 39  1  0
  6  7  1  0
  6  8  1  0
  6 13  1  0
  9 10  1  0
  9 40  1  0
  9 41  1  0
  9 42  1  0
 10 11  1  0
 10 12  1  0
 11 43  2  0
 12 13  1  0
 12 44  1  0
 12 45  1  0
 13 14  1  0
 13 46  1  0
 14 15  2  0
 14 16  1  0
 16 17  1  0
 16 47  1  0
 17 18  1  0
 17 48  1  0
 17 49  1  0
 18 19  2  0
 18 21  1  0
 19 20  1  0
 19 50  1  0
 20 23  2  0
 20 51  1  0
 21 22  2  0
 21 52  1  0
 22 23  1  0
 22 53  1  0
 23 24  1  0
 24 25  1  0
 24 28  1  0
 25 26  2  0
 26 27  1  0
 26 54  1  0
 27 28  2  0
 28 55  1  0
M  CHG  1   2   1
M  END
>  <template_idx>  (14) 
4w9c_ligand

>  <smiles>  (14) 
CN(C=O)CC(CC[N+](C)(C)C)C(=O)NCc1ccc(-n2cnc(Br)n2)cc1

>  <qed>  (14) 
0.43731835712000844

$$$$
sample13
     RDKit          3D

 55 57  0  0  0  0  0  0  0  0999 V2000
    0.1888   -0.4031    6.2341 C   0  0  0  0  0  0  0  0  0  0  0  0
   -0.1671   -0.2074    4.7126 C   0  0  0  0  0  0  0  0  0  0  0  0
   -1.5497   -0.7889    4.3637 C   0  0  0  0  0  0  0  0  0  0  0  0
    0.8431   -0.9900    3.8918 C   0  0  0  0  0  0  0  0  0  0  0  0
   -0.2410    1.2750    4.4008 C   0  0  0  0  0  0  0  0  0  0  0  0
   -0.7504    1.5531    3.0368 C   0  0  0  0  0  0  0  0  0  0  0  0
   -1.9150    1.9668    2.8421 O   0  0  0  0  0  0  0  0  0  0  0  0
    0.1332    1.4302    2.0626 N   0  0  0  0  0  0  0  0  0  0  0  0
    1.5587    1.3073    2.0265 C   0  0  0  0  0  0  0  0  0  0  0  0
    1.9646    2.3119    0.9011 C   0  0  0  0  0  0  0  0  0  0  0  0
    2.0410    3.6091    1.3851 O   0  0  0  0  0  0  0  0  0  0  0  0
    0.8349    2.1032   -0.1361 C   0  0  0  0  0  0  0  0  0  0  0  0
   -0.3577    1.5876    0.7056 C   0  0  0  0  0  0  0  0  0  0  0  0
   -0.8867    0.2755    0.2797 C   0  0  0  0  0  0  0  0  0  0  0  0
   -0.6556   -0.7750    0.9385 O   0  0  0  0  0  0  0  0  0  0  0  0
   -1.7708    0.3481   -0.7174 N   0  0  0  0  0  0  0  0  0  0  0  0
   -2.1757   -0.8076   -1.5018 C   0  0  0  0  0  0  0  0  0  0  0  0
   -1.3497   -0.9503   -2.7286 C   0  0  0  0  0  0  0  0  0  0  0  0
   -1.6924   -1.9727   -3.5617 C   0  0  0  0  0  0  0  0  0  0  0  0
   -1.0250   -2.1198   -4.7582 C   0  0  0  0  0  0  0  0  0  0  0  0
   -0.3249   -0.1368   -3.0754 C   0  0  0  0  0  0  0  0  0  0  0  0
    0.3114   -0.2542   -4.2833 C   0  0  0  0  0  0  0  0  0  0  0  0
    0.0078   -1.3017   -5.1171 C   0  0  0  0  0  0  0  0  0  0  0  0
    0.6990   -1.4923   -6.3080 C   0  0  0  0  0  0  0  0  0  0  0  0
    1.6029   -0.5531   -6.7117 N   0  0  0  0  0  0  0  0  0  0  0  0
    2.3111   -0.9773   -7.7342 C   0  0  0  0  0  0  0  0  0  0  0  0
    1.9165   -2.5179   -8.4461 S   0  0  0  0  0  0  0  0  0  0  0  0
    0.7191   -2.5728   -7.1349 C   0  0  0  0  0  0  0  0  0  0  0  0
    0.0801   -1.4299    6.4642 H   0  0  0  0  0  0  0  0  0  0  0  0
   -0.4506    0.1976    6.7920 H   0  0  0  0  0  0  0  0  0  0  0  0
    1.2159   -0.1058    6.3504 H   0  0  0  0  0  0  0  0  0  0  0  0
   -1.7183   -0.7128    3.1779 H   0  0  0  0  0  0  0  0  0  0  0  0
   -1.7613   -1.7138    4.8409 H   0  0  0  0  0  0  0  0  0  0  0  0
   -2.2739   -0.3426    4.8729 H   0  0  0  0  0  0  0  0  0  0  0  0
    1.7956   -0.4905    3.9196 H   0  0  0  0  0  0  0  0  0  0  0  0
    0.5320   -1.1334    2.8123 H   0  0  0  0  0  0  0  0  0  0  0  0
    0.9389   -2.0154    4.3523 H   0  0  0  0  0  0  0  0  0  0  0  0
    0.7287    1.7562    4.6361 H   0  0  0  0  0  0  0  0  0  0  0  0
   -0.9406    1.7533    5.0885 H   0  0  0  0  0  0  0  0  0  0  0  0
    1.8217    0.3031    1.7208 H   0  0  0  0  0  0  0  0  0  0  0  0
    2.0331    1.5816    2.9380 H   0  0  0  0  0  0  0  0  0  0  0  0
    2.9390    2.0798    0.4991 H   0  0  0  0  0  0  0  0  0  0  0  0
    1.3536    4.2557    0.9575 H   0  0  0  0  0  0  0  0  0  0  0  0
    1.1406    1.2901   -0.8815 H   0  0  0  0  0  0  0  0  0  0  0  0
    0.6234    3.0079   -0.6542 H   0  0  0  0  0  0  0  0  0  0  0  0
   -1.1815    2.2977    0.7542 H   0  0  0  0  0  0  0  0  0  0  0  0
   -2.2475    1.2267   -0.8693 H   0  0  0  0  0  0  0  0  0  0  0  0
   -3.2234   -0.6846   -1.7748 H   0  0  0  0  0  0  0  0  0  0  0  0
   -2.1241   -1.6659   -0.8694 H   0  0  0  0  0  0  0  0  0  0  0  0
   -2.4923   -2.6818   -3.2459 H   0  0  0  0  0  0  0  0  0  0  0  0
   -1.3917   -2.9083   -5.4351 H   0  0  0  0  0  0  0  0  0  0  0  0
   -0.0096    0.6401   -2.3616 H   0  0  0  0  0  0  0  0  0  0  0  0
    1.0819    0.4275   -4.5748 H   0  0  0  0  0  0  0  0  0  0  0  0
    3.1599   -0.5071   -8.0380 H   0  0  0  0  0  0  0  0  0  0  0  0
    0.1004   -3.3727   -7.0388 H   0  0  0  0  0  0  0  0  0  0  0  0
  1  2  1  0
  1 29  1  0
  1 30  1  0
  1 31  1  0
  2  3  1  0
  2  4  1  0
  2  5  1  0
  3 32  1  0
  3 33  1  0
  3 34  1  0
  4 35  1  0
  4 36  1  0
  4 37  1  0
  5  6  1  0
  5 38  1  0
  5 39  1  0
  6  7  2  0
  6  8  1  0
  8  9  1  0
  8 13  1  0
  9 10  1  0
  9 40  1  0
  9 41  1  0
 10 11  1  0
 10 12  1  0
 10 42  1  0
 11 43  1  0
 12 13  1  0
 12 44  1  0
 12 45  1  0
 13 14  1  0
 13 46  1  0
 14 15  2  0
 14 16  1  0
 16 17  1  0
 16 47  1  0
 17 18  1  0
 17 48  1  0
 17 49  1  0
 18 19  2  0
 18 21  1  0
 19 20  1  0
 19 50  1  0
 20 23  2  0
 20 51  1  0
 21 22  2  0
 21 52  1  0
 22 23  1  0
 22 53  1  0
 23 24  1  0
 24 25  1  0
 24 28  2  0
 25 26  2  0
 26 27  1  0
 26 54  1  0
 27 28  1  0
 28 55  1  0
M  END
>  <template_idx>  (15) 
4w9c_ligand

>  <smiles>  (15) 
CC(C)(C)CC(=O)N1CC(O)CC1C(=O)NCc1ccc(-c2cscn2)cc1

>  <qed>  (15) 
0.807110871595695

$$$$
sample14
     RDKit          3D

 55 57  0  0  0  0  0  0  0  0999 V2000
    0.2269   -0.3973    6.2562 C   0  0  0  0  0  0  0  0  0  0  0  0
   -0.0722   -0.2112    4.7249 C   0  0  0  0  0  0  0  0  0  0  0  0
   -1.4543   -0.7941    4.4377 C   0  0  0  0  0  0  0  0  0  0  0  0
    0.9713   -1.0164    3.9448 C   0  0  0  0  0  0  0  0  0  0  0  0
   -0.0992    1.2691    4.3329 C   0  0  0  0  0  0  0  0  0  0  0  0
   -1.1514    1.8949    2.0991 C   0  0  0  0  0  0  0  0  0  0  0  0
   -2.8971    1.6700    2.3487 Cl  0  0  0  0  0  0  0  0  0  0  0  0
   -0.1509    1.5810    2.9337 C   0  0  0  0  0  0  0  0  0  0  0  0
    1.1981    1.7907    2.2493 C   0  0  0  0  0  0  0  0  0  0  0  0
    0.8371    2.2283    0.7833 C   0  0  0  0  0  0  0  0  0  0  0  0
    1.4624    3.5029    0.3430 N   0  0  0  0  0  0  0  0  0  0  0  0
    1.1370    1.1052   -0.1525 C   0  0  0  0  0  0  0  0  0  0  0  0
   -0.6444    2.4474    0.8442 C   0  0  0  0  0  0  0  0  0  0  0  0
    0.0616    0.0568    0.1162 C   0  0  0  0  0  0  0  0  0  0  0  0
    0.2875   -1.0335    0.8284 O   0  0  0  0  0  0  0  0  0  0  0  0
   -1.0994    0.2651   -0.4707 N   0  0  0  0  0  0  0  0  0  0  0  0
   -1.8041   -0.6725   -1.2836 C   0  0  0  0  0  0  0  0  0  0  0  0
   -1.1905   -0.8568   -2.6373 C   0  0  0  0  0  0  0  0  0  0  0  0
   -1.7037   -1.8745   -3.3973 C   0  0  0  0  0  0  0  0  0  0  0  0
   -1.1810   -2.0911   -4.6681 C   0  0  0  0  0  0  0  0  0  0  0  0
   -0.1700   -0.1139   -3.1079 C   0  0  0  0  0  0  0  0  0  0  0  0
    0.3677   -0.3495   -4.3631 C   0  0  0  0  0  0  0  0  0  0  0  0
   -0.1167   -1.3449   -5.1080 C   0  0  0  0  0  0  0  0  0  0  0  0
    0.4653   -1.6017   -6.2560 N   0  0  0  0  0  0  0  0  0  0  0  0
    1.6258   -0.9789   -6.5275 N   0  0  0  0  0  0  0  0  0  0  0  0
    2.0866   -1.6354   -7.5803 C   0  0  0  0  0  0  0  0  0  0  0  0
    1.2821   -2.6207   -8.0653 N   0  0  0  0  0  0  0  0  0  0  0  0
    0.2138   -2.5010   -7.2363 C   0  0  0  0  0  0  0  0  0  0  0  0
    0.1702   -1.4595    6.4820 H   0  0  0  0  0  0  0  0  0  0  0  0
   -0.5064    0.1730    6.7719 H   0  0  0  0  0  0  0  0  0  0  0  0
    1.2182   -0.0577    6.4265 H   0  0  0  0  0  0  0  0  0  0  0  0
   -1.5263   -1.8324    4.6260 H   0  0  0  0  0  0  0  0  0  0  0  0
   -2.2198   -0.2522    5.0421 H   0  0  0  0  0  0  0  0  0  0  0  0
   -1.6519   -0.7380    3.2974 H   0  0  0  0  0  0  0  0  0  0  0  0
    1.9916   -0.6248    4.1317 H   0  0  0  0  0  0  0  0  0  0  0  0
    0.7498   -0.9902    2.8460 H   0  0  0  0  0  0  0  0  0  0  0  0
    0.9428   -2.0645    4.2876 H   0  0  0  0  0  0  0  0  0  0  0  0
    0.7988    1.7103    4.7570 H   0  0  0  0  0  0  0  0  0  0  0  0
   -0.9295    1.7554    4.8428 H   0  0  0  0  0  0  0  0  0  0  0  0
    1.7942    0.7935    2.2568 H   0  0  0  0  0  0  0  0  0  0  0  0
    1.7945    2.5800    2.7167 H   0  0  0  0  0  0  0  0  0  0  0  0
    2.5080    3.3315    0.2816 H   0  0  0  0  0  0  0  0  0  0  0  0
    0.9560    4.2455    0.6364 H   0  0  0  0  0  0  0  0  0  0  0  0
    2.1631    0.7366    0.0480 H   0  0  0  0  0  0  0  0  0  0  0  0
    1.1013    1.4834   -1.2042 H   0  0  0  0  0  0  0  0  0  0  0  0
   -1.3052    3.1291   -0.0284 O   0  0  0  0  0  0  0  0  0  0  0  0
   -1.4736    1.2342   -0.5043 H   0  0  0  0  0  0  0  0  0  0  0  0
   -2.7973   -0.3589   -1.4058 H   0  0  0  0  0  0  0  0  0  0  0  0
   -1.8473   -1.6217   -0.7860 H   0  0  0  0  0  0  0  0  0  0  0  0
   -2.5095   -2.5317   -2.9666 H   0  0  0  0  0  0  0  0  0  0  0  0
   -1.6412   -2.8816   -5.3120 H   0  0  0  0  0  0  0  0  0  0  0  0
    0.2102    0.7402   -2.5291 H   0  0  0  0  0  0  0  0  0  0  0  0
    1.1938    0.2471   -4.7462 H   0  0  0  0  0  0  0  0  0  0  0  0
    3.0503   -1.4724   -7.9972 H   0  0  0  0  0  0  0  0  0  0  0  0
   -0.7232   -2.9922   -7.3595 H   0  0  0  0  0  0  0  0  0  0  0  0
  1  2  1  0
  1 29  1  0
  1 30  1  0
  1 31  1  0
  2  3  1  0
  2  4  1  0
  2  5  1  0
  3 32  1  0
  3 33  1  0
  3 34  1  0
  4 35  1  0
  4 36  1  0
  4 37  1  0
  5  8  1  0
  5 38  1  0
  5 39  1  0
  6  7  1  0
  6  8  2  0
  6 13  1  0
  8  9  1  0
  9 10  1  0
  9 40  1  0
  9 41  1  0
 10 11  1  0
 10 12  1  0
 10 13  1  0
 11 42  1  0
 11 43  1  0
 12 14  1  0
 12 44  1  0
 12 45  1  0
 13 46  2  0
 14 15  2  0
 14 16  1  0
 16 17  1  0
 16 47  1  0
 17 18  1  0
 17 48  1  0
 17 49  1  0
 18 19  2  0
 18 21  1  0
 19 20  1  0
 19 50  1  0
 20 23  2  0
 20 51  1  0
 21 22  2  0
 21 52  1  0
 22 23  1  0
 22 53  1  0
 23 24  1  0
 24 25  1  0
 24 28  1  0
 25 26  2  0
 26 27  1  0
 26 54  1  0
 27 28  2  0
 28 55  1  0
M  END
>  <template_idx>  (16) 
4w9c_ligand

>  <smiles>  (16) 
CC(C)(C)CC1=C(Cl)C(=O)C(N)(CC(=O)NCc2ccc(-n3cncn3)cc2)C1

>  <qed>  (16) 
0.7545677336656911

$$$$
sample15
     RDKit          3D

 55 57  0  0  0  0  0  0  0  0999 V2000
    0.3168   -0.0798    6.1372 C   0  0  0  0  0  0  0  0  0  0  0  0
   -0.1640   -0.1739    4.6625 C   0  0  0  0  0  0  0  0  0  0  0  0
   -1.5075   -0.8920    4.5821 C   0  0  0  0  0  0  0  0  0  0  0  0
    0.8865   -0.9759    3.8980 C   0  0  0  0  0  0  0  0  0  0  0  0
   -0.3742    1.2235    4.0639 C   0  0  0  0  0  0  0  0  0  0  0  0
   -0.7993    1.2260    2.6502 C   0  0  0  0  0  0  0  0  0  0  0  0
   -2.0280    1.1689    2.3152 O   0  0  0  0  0  0  0  0  0  0  0  0
    0.1709    1.4180    1.7583 N   0  0  0  0  0  0  0  0  0  0  0  0
    1.6390    1.4524    1.8850 C   0  0  0  0  0  0  0  0  0  0  0  0
    2.2089    1.6830    0.4197 C   0  0  0  0  0  0  0  0  0  0  0  0
    1.0691    3.6516    0.2050 C   0  0  0  0  0  0  0  0  0  0  0  0
    1.0429    2.3120   -0.2437 C   0  0  0  0  0  0  0  0  0  0  0  0
   -0.2282    1.6529    0.4139 C   0  0  0  0  0  0  0  0  0  0  0  0
   -0.6615    0.3199   -0.0412 C   0  0  0  0  0  0  0  0  0  0  0  0
    0.0621   -0.6556    0.0968 O   0  0  0  0  0  0  0  0  0  0  0  0
   -1.9383    0.2652   -0.4731 N   0  0  0  0  0  0  0  0  0  0  0  0
   -2.4215   -0.7578   -1.3965 C   0  0  0  0  0  0  0  0  0  0  0  0
   -1.5394   -0.9427   -2.6003 C   0  0  0  0  0  0  0  0  0  0  0  0
   -1.8196   -2.0347   -3.4157 C   0  0  0  0  0  0  0  0  0  0  0  0
   -1.0786   -2.1931   -4.5816 C   0  0  0  0  0  0  0  0  0  0  0  0
   -0.5174   -0.0977   -2.8975 C   0  0  0  0  0  0  0  0  0  0  0  0
    0.2210   -0.2821   -4.0634 C   0  0  0  0  0  0  0  0  0  0  0  0
   -0.0603   -1.3221   -4.8750 C   0  0  0  0  0  0  0  0  0  0  0  0
    0.6475   -1.4756   -5.9771 N   0  0  0  0  0  0  0  0  0  0  0  0
    1.8257   -0.8314   -6.0334 N   0  0  0  0  0  0  0  0  0  0  0  0
    2.3646   -1.2727   -7.1314 C   0  0  0  0  0  0  0  0  0  0  0  0
    1.5714   -2.0705   -7.8652 N   0  0  0  0  0  0  0  0  0  0  0  0
    0.4923   -2.2067   -7.1219 C   0  0  0  0  0  0  0  0  0  0  0  0
    0.3771   -1.0595    6.5233 H   0  0  0  0  0  0  0  0  0  0  0  0
   -0.3461    0.5365    6.6691 H   0  0  0  0  0  0  0  0  0  0  0  0
    1.2998    0.3587    6.1712 H   0  0  0  0  0  0  0  0  0  0  0  0
   -1.8013   -0.9658    3.4850 H   0  0  0  0  0  0  0  0  0  0  0  0
   -2.2714   -0.3371    5.1146 H   0  0  0  0  0  0  0  0  0  0  0  0
   -1.4133   -1.8756    5.0246 H   0  0  0  0  0  0  0  0  0  0  0  0
    1.8764   -0.5361    3.9913 H   0  0  0  0  0  0  0  0  0  0  0  0
    0.6364   -1.0685    2.8057 H   0  0  0  0  0  0  0  0  0  0  0  0
    0.9369   -1.9890    4.3664 H   0  0  0  0  0  0  0  0  0  0  0  0
    0.5180    1.8336    4.1912 H   0  0  0  0  0  0  0  0  0  0  0  0
   -1.1465    1.7409    4.6900 H   0  0  0  0  0  0  0  0  0  0  0  0
    1.9113    2.3261    2.4912 H   0  0  0  0  0  0  0  0  0  0  0  0
    2.0911    0.6253    2.3908 H   0  0  0  0  0  0  0  0  0  0  0  0
    3.1457    2.3148    0.3897 H   0  0  0  0  0  0  0  0  0  0  0  0
    1.0669    4.5334    0.5455 O   0  0  0  0  0  0  0  0  0  0  0  0
    2.4491    0.7529   -0.0241 H   0  0  0  0  0  0  0  0  0  0  0  0
    0.9793    2.2181   -1.3546 H   0  0  0  0  0  0  0  0  0  0  0  0
   -1.0471    2.3947    0.3734 H   0  0  0  0  0  0  0  0  0  0  0  0
   -2.5733    0.8139    0.0992 H   0  0  0  0  0  0  0  0  0  0  0  0
   -3.4059   -0.5000   -1.6752 H   0  0  0  0  0  0  0  0  0  0  0  0
   -2.5098   -1.7119   -0.8923 H   0  0  0  0  0  0  0  0  0  0  0  0
   -2.6050   -2.7650   -3.1291 H   0  0  0  0  0  0  0  0  0  0  0  0
   -1.3166   -3.0325   -5.2501 H   0  0  0  0  0  0  0  0  0  0  0  0
   -0.2509    0.7616   -2.2709 H   0  0  0  0  0  0  0  0  0  0  0  0
    1.0017    0.4204   -4.3810 H   0  0  0  0  0  0  0  0  0  0  0  0
    3.3756   -1.1063   -7.3694 H   0  0  0  0  0  0  0  0  0  0  0  0
   -0.3587   -2.7925   -7.3466 H   0  0  0  0  0  0  0  0  0  0  0  0
  1  2  1  0
  1 29  1  0
  1 30  1  0
  1 31  1  0
  2  3  1  0
  2  4  1  0
  2  5  1  0
  3 32  1  0
  3 33  1  0
  3 34  1  0
  4 35  1  0
  4 36  1  0
  4 37  1  0
  5  6  1  0
  5 38  1  0
  5 39  1  0
  6  7  2  0
  6  8  1  0
  8  9  1  0
  8 13  1  0
  9 10  1  0
  9 40  1  0
  9 41  1  0
 10 12  1  0
 10 42  1  0
 10 44  1  0
 11 12  1  0
 11 43  2  0
 12 13  1  0
 12 45  1  0
 13 14  1  0
 13 46  1  0
 14 15  2  0
 14 16  1  0
 16 17  1  0
 16 47  1  0
 17 18  1  0
 17 48  1  0
 17 49  1  0
 18 19  2  0
 18 21  1  0
 19 20  1  0
 19 50  1  0
 20 23  2  0
 20 51  1  0
 21 22  2  0
 21 52  1  0
 22 23  1  0
 22 53  1  0
 23 24  1  0
 24 25  1  0
 24 28  1  0
 25 26  2  0
 26 27  1  0
 26 54  1  0
 27 28  2  0
 28 55  1  0
M  END
>  <template_idx>  (17) 
4w9c_ligand

>  <smiles>  (17) 
CC(C)(C)CC(=O)N1CCC(C=O)C1C(=O)NCc1ccc(-n2cncn2)cc1

>  <qed>  (17) 
0.749036362487414

$$$$
sample16
     RDKit          3D

 55 57  0  0  0  0  0  0  0  0999 V2000
    0.3153   -0.3282    6.1298 C   0  0  0  0  0  0  0  0  0  0  0  0
   -0.1279   -0.2980    4.6149 C   0  0  0  0  0  0  0  0  0  0  0  0
   -1.4633   -1.0431    4.4460 C   0  0  0  0  0  0  0  0  0  0  0  0
    0.9385   -0.9931    3.7660 C   0  0  0  0  0  0  0  0  0  0  0  0
   -0.3642    1.1436    4.1762 C   0  0  0  0  0  0  0  0  0  0  0  0
   -0.8347    1.2850    2.7697 C   0  0  0  0  0  0  0  0  0  0  0  0
   -2.0817    1.3323    2.4912 O   0  0  0  0  0  0  0  0  0  0  0  0
    0.1193    1.5153    1.8591 N   0  0  0  0  0  0  0  0  0  0  0  0
    1.5277    1.7994    2.0400 C   0  0  0  0  0  0  0  0  0  0  0  0
    1.8884    2.6333    0.7810 C   0  0  0  0  0  0  0  0  0  0  0  0
    1.6028    3.9808    0.9594 O   0  0  0  0  0  0  0  0  0  0  0  0
    0.9944    1.9922   -0.3173 C   0  0  0  0  0  0  0  0  0  0  0  0
   -0.2745    1.5743    0.4545 C   0  0  0  0  0  0  0  0  0  0  0  0
   -0.8033    0.2152    0.1199 C   0  0  0  0  0  0  0  0  0  0  0  0
   -0.2987   -0.8229    0.6467 O   0  0  0  0  0  0  0  0  0  0  0  0
   -1.9756    0.2278   -0.5663 N   0  0  0  0  0  0  0  0  0  0  0  0
   -2.4346   -0.7655   -1.5137 C   0  0  0  0  0  0  0  0  0  0  0  0
   -1.5040   -0.9392   -2.6575 C   0  0  0  0  0  0  0  0  0  0  0  0
   -1.6909   -2.0290   -3.4663 C   0  0  0  0  0  0  0  0  0  0  0  0
   -0.9506   -2.1896   -4.6233 C   0  0  0  0  0  0  0  0  0  0  0  0
   -0.5032   -0.0456   -2.9907 C   0  0  0  0  0  0  0  0  0  0  0  0
    0.2536   -0.2136   -4.1312 C   0  0  0  0  0  0  0  0  0  0  0  0
    0.0231   -1.3009   -4.8991 C   0  0  0  0  0  0  0  0  0  0  0  0
    0.7581   -1.4793   -5.9606 N   0  0  0  0  0  0  0  0  0  0  0  0
    1.5757   -0.5040   -6.4212 N   0  0  0  0  0  0  0  0  0  0  0  0
    2.2576   -1.0956   -7.3977 C   0  0  0  0  0  0  0  0  0  0  0  0
    1.9766   -2.3690   -7.6163 N   0  0  0  0  0  0  0  0  0  0  0  0
    0.9884   -2.5670   -6.7207 C   0  0  0  0  0  0  0  0  0  0  0  0
    0.5611   -1.3260    6.3881 H   0  0  0  0  0  0  0  0  0  0  0  0
   -0.4720    0.0968    6.7045 H   0  0  0  0  0  0  0  0  0  0  0  0
    1.2008    0.2572    6.2124 H   0  0  0  0  0  0  0  0  0  0  0  0
   -1.7359   -1.0591    3.3627 H   0  0  0  0  0  0  0  0  0  0  0  0
   -2.2330   -0.5226    4.9997 H   0  0  0  0  0  0  0  0  0  0  0  0
   -1.3632   -2.0540    4.8259 H   0  0  0  0  0  0  0  0  0  0  0  0
    1.9454   -0.5489    3.9343 H   0  0  0  0  0  0  0  0  0  0  0  0
    0.6814   -0.9343    2.6941 H   0  0  0  0  0  0  0  0  0  0  0  0
    0.9862   -2.0527    4.0868 H   0  0  0  0  0  0  0  0  0  0  0  0
    0.5435    1.7389    4.3850 H   0  0  0  0  0  0  0  0  0  0  0  0
   -1.1531    1.5908    4.8469 H   0  0  0  0  0  0  0  0  0  0  0  0
    2.1183    0.8510    2.0791 H   0  0  0  0  0  0  0  0  0  0  0  0
    1.7648    2.4057    2.8996 H   0  0  0  0  0  0  0  0  0  0  0  0
    2.9346    2.5624    0.5806 H   0  0  0  0  0  0  0  0  0  0  0  0
    1.3578    4.4801    0.1620 H   0  0  0  0  0  0  0  0  0  0  0  0
    1.4863    1.0835   -0.6834 H   0  0  0  0  0  0  0  0  0  0  0  0
    0.7963    2.6494   -1.1608 H   0  0  0  0  0  0  0  0  0  0  0  0
   -1.0696    2.3251    0.3223 H   0  0  0  0  0  0  0  0  0  0  0  0
   -2.7089    0.7516   -0.0838 H   0  0  0  0  0  0  0  0  0  0  0  0
   -3.3938   -0.4267   -1.8792 H   0  0  0  0  0  0  0  0  0  0  0  0
   -2.6013   -1.6981   -1.0052 H   0  0  0  0  0  0  0  0  0  0  0  0
   -2.6352   -2.9960   -3.0745 F   0  0  0  0  0  0  0  0  0  0  0  0
   -1.1932   -3.0628   -5.2727 H   0  0  0  0  0  0  0  0  0  0  0  0
   -0.3147    0.8226   -2.3294 H   0  0  0  0  0  0  0  0  0  0  0  0
    1.0264    0.4880   -4.4049 H   0  0  0  0  0  0  0  0  0  0  0  0
    3.0645   -0.6358   -7.9487 H   0  0  0  0  0  0  0  0  0  0  0  0
    0.4942   -3.5015   -6.6139 H   0  0  0  0  0  0  0  0  0  0  0  0
  1  2  1  0
  1 29  1  0
  1 30  1  0
  1 31  1  0
  2  3  1  0
  2  4  1  0
  2  5  1  0
  3 32  1  0
  3 33  1  0
  3 34  1  0
  4 35  1  0
  4 36  1  0
  4 37  1  0
  5  6  1  0
  5 38  1  0
  5 39  1  0
  6  7  2  0
  6  8  1  0
  8  9  1  0
  8 13  1  0
  9 10  1  0
  9 40  1  0
  9 41  1  0
 10 11  1  0
 10 12  1  0
 10 42  1  0
 11 43  1  0
 12 13  1  0
 12 44  1  0
 12 45  1  0
 13 14  1  0
 13 46  1  0
 14 15  2  0
 14 16  1  0
 16 17  1  0
 16 47  1  0
 17 18  1  0
 17 48  1  0
 17 49  1  0
 18 19  2  0
 18 21  1  0
 19 20  1  0
 19 50  1  0
 20 23  2  0
 20 51  1  0
 21 22  2  0
 21 52  1  0
 22 23  1  0
 22 53  1  0
 23 24  1  0
 24 25  1  0
 24 28  1  0
 25 26  2  0
 26 27  1  0
 26 54  1  0
 27 28  2  0
 28 55  1  0
M  END
>  <template_idx>  (18) 
4w9c_ligand

>  <smiles>  (18) 
CC(C)(C)CC(=O)N1CC(O)CC1C(=O)NCc1ccc(-n2cncn2)cc1F

>  <qed>  (18) 
0.7865300201320744

$$$$
sample17
     RDKit          3D

 55 56  0  0  0  0  0  0  0  0999 V2000
    0.3545   -0.2843    6.2799 C   0  0  0  0  0  0  0  0  0  0  0  0
   -0.1025   -0.1568    4.8018 C   0  0  0  0  0  0  0  0  0  0  0  0
   -1.4623   -0.8190    4.6412 C   0  0  0  0  0  0  0  0  0  0  0  0
    0.9072   -0.8772    3.8938 C   0  0  0  0  0  0  0  0  0  0  0  0
   -0.1971    1.3170    4.4575 C   0  0  0  0  0  0  0  0  0  0  0  0
   -0.9487    1.6185    3.2477 C   0  0  0  0  0  0  0  0  0  0  0  0
   -2.1173    2.1309    3.3245 O   0  0  0  0  0  0  0  0  0  0  0  0
   -0.3220    1.3618    2.0503 N   0  0  0  0  0  0  0  0  0  0  0  0
    1.0363    1.7009    1.7263 C   0  0  0  0  0  0  0  0  0  0  0  0
    2.1372    3.9001    0.8789 C   0  0  0  0  0  0  0  0  0  0  0  0
    1.4535    4.5228    1.5265 H   0  0  0  0  0  0  0  0  0  0  0  0
    1.3791    2.5760    0.4881 C   0  0  0  0  0  0  0  0  0  0  0  0
   -1.2271    0.7573    1.2390 C   0  0  0  0  0  0  0  0  0  0  0  0
   -0.9414    0.3039    0.0602 C   0  0  0  0  0  0  0  0  0  0  0  0
    0.1585    0.2618   -0.2466 H   0  0  0  0  0  0  0  0  0  0  0  0
   -1.9393   -0.0659   -0.7524 N   0  0  0  0  0  0  0  0  0  0  0  0
   -2.1779   -1.1161   -1.7409 C   0  0  0  0  0  0  0  0  0  0  0  0
   -1.3229   -1.2020   -2.9552 C   0  0  0  0  0  0  0  0  0  0  0  0
   -1.9119   -1.7370   -4.0606 C   0  0  0  0  0  0  0  0  0  0  0  0
   -1.1866   -1.8556   -5.1988 C   0  0  0  0  0  0  0  0  0  0  0  0
   -0.0069   -0.7940   -3.0017 C   0  0  0  0  0  0  0  0  0  0  0  0
    0.7021   -0.8697   -4.1989 C   0  0  0  0  0  0  0  0  0  0  0  0
    0.0904   -1.4393   -5.2787 C   0  0  0  0  0  0  0  0  0  0  0  0
    0.7848   -1.6832   -6.4233 C   0  0  0  0  0  0  0  0  0  0  0  0
    1.7647   -0.9188   -6.9219 N   0  0  0  0  0  0  0  0  0  0  0  0
    2.2230   -1.5696   -7.9577 C   0  0  0  0  0  0  0  0  0  0  0  0
    1.6181   -2.6958   -8.2288 N   0  0  0  0  0  0  0  0  0  0  0  0
    0.6616   -2.6914   -7.2320 N   0  0  0  0  0  0  0  0  0  0  0  0
    0.3846   -1.3283    6.5580 H   0  0  0  0  0  0  0  0  0  0  0  0
   -0.3239    0.2546    6.8609 H   0  0  0  0  0  0  0  0  0  0  0  0
    1.3405    0.1385    6.3501 H   0  0  0  0  0  0  0  0  0  0  0  0
   -1.7893   -0.7218    3.5420 H   0  0  0  0  0  0  0  0  0  0  0  0
   -2.1976   -0.3380    5.2853 H   0  0  0  0  0  0  0  0  0  0  0  0
   -1.3830   -1.8657    4.9224 H   0  0  0  0  0  0  0  0  0  0  0  0
    1.8870   -0.3892    3.9068 H   0  0  0  0  0  0  0  0  0  0  0  0
    0.5369   -0.9422    2.8112 H   0  0  0  0  0  0  0  0  0  0  0  0
    1.0299   -1.9153    4.3190 H   0  0  0  0  0  0  0  0  0  0  0  0
    0.8092    1.7719    4.4365 H   0  0  0  0  0  0  0  0  0  0  0  0
   -0.7585    1.8164    5.2741 H   0  0  0  0  0  0  0  0  0  0  0  0
    1.5467    0.7440    1.5882 H   0  0  0  0  0  0  0  0  0  0  0  0
    1.3823    2.2184    2.6058 H   0  0  0  0  0  0  0  0  0  0  0  0
    3.0928    3.6139    1.3944 H   0  0  0  0  0  0  0  0  0  0  0  0
    2.4039    4.5674    0.0158 H   0  0  0  0  0  0  0  0  0  0  0  0
    2.0213    2.0549   -0.2458 H   0  0  0  0  0  0  0  0  0  0  0  0
    0.4827    2.8024    0.0513 H   0  0  0  0  0  0  0  0  0  0  0  0
   -2.2465    0.8312    1.5815 H   0  0  0  0  0  0  0  0  0  0  0  0
   -2.8633    0.0441   -0.2457 H   0  0  0  0  0  0  0  0  0  0  0  0
   -3.1951   -0.9569   -2.0569 H   0  0  0  0  0  0  0  0  0  0  0  0
   -2.1479   -2.0580   -1.2438 H   0  0  0  0  0  0  0  0  0  0  0  0
   -2.9754   -2.0703   -4.0129 H   0  0  0  0  0  0  0  0  0  0  0  0
   -1.6979   -2.3237   -6.0350 H   0  0  0  0  0  0  0  0  0  0  0  0
    0.4936   -0.3879   -2.0833 H   0  0  0  0  0  0  0  0  0  0  0  0
    1.7180   -0.5120   -4.2878 H   0  0  0  0  0  0  0  0  0  0  0  0
    3.1032   -1.3052   -8.4749 H   0  0  0  0  0  0  0  0  0  0  0  0
   -0.0612   -3.4185   -7.2354 H   0  0  0  0  0  0  0  0  0  0  0  0
  1  2  1  0
  1 29  1  0
  1 30  1  0
  1 31  1  0
  2  3  1  0
  2  4  1  0
  2  5  1  0
  3 32  1  0
  3 33  1  0
  3 34  1  0
  4 35  1  0
  4 36  1  0
  4 37  1  0
  5  6  1  0
  5 38  1  0
  5 39  1  0
  6  7  2  0
  6  8  1  0
  8  9  1  0
  8 13  1  0
  9 12  1  0
  9 40  1  0
  9 41  1  0
 10 11  1  0
 10 12  1  0
 10 42  1  0
 10 43  1  0
 12 44  1  0
 12 45  1  0
 13 14  2  3
 13 46  1  0
 14 15  1  0
 14 16  1  0
 16 17  1  0
 16 47  1  0
 17 18  1  0
 17 48  1  0
 17 49  1  0
 18 19  2  0
 18 21  1  0
 19 20  1  0
 19 50  1  0
 20 23  2  0
 20 51  1  0
 21 22  2  0
 21 52  1  0
 22 23  1  0
 22 53  1  0
 23 24  1  0
 24 25  2  0
 24 28  1  0
 25 26  1  0
 26 27  2  0
 26 54  1  0
 27 28  1  0
 28 55  1  0
M  END
>  <template_idx>  (19) 
4w9c_ligand

>  <smiles>  (19) 
CCCN(C=CNCc1ccc(-c2ncn[nH]2)cc1)C(=O)CC(C)(C)C

>  <qed>  (19) 
0.7569517823437353

$$$$
sample18
     RDKit          3D

 55 58  0  0  0  0  0  0  0  0999 V2000
    0.2001   -0.2548    6.6723 C   0  0  0  0  0  0  0  0  0  0  0  0
   -0.3028   -0.4331    5.2411 C   0  0  0  0  0  0  0  0  0  0  0  0
   -1.6861   -1.0360    5.1703 C   0  0  0  0  0  0  0  0  0  0  0  0
    0.6390   -1.3860    4.5260 C   0  0  0  0  0  0  0  0  0  0  0  0
   -0.3028    0.9004    4.5097 C   0  0  0  0  0  0  0  0  0  0  0  0
   -0.1691    0.8035    3.0888 C   0  0  0  0  0  0  0  0  0  0  0  0
   -0.8928    0.0153    2.2980 N   0  0  0  0  0  0  0  0  0  0  0  0
    0.5990    1.6005    2.3169 C   0  0  0  0  0  0  0  0  0  0  0  0
    1.5696    2.6486    2.5348 C   0  0  0  0  0  0  0  0  0  0  0  0
    3.2755    2.7840    0.9501 O   0  0  0  0  0  0  0  0  0  0  0  0
    1.9408    3.0685    1.1376 C   0  0  0  0  0  0  0  0  0  0  0  0
    1.0563    2.2350    0.1736 C   0  0  0  0  0  0  0  0  0  0  0  0
   -0.6089    0.4107    1.0684 C   0  0  0  0  0  0  0  0  0  0  0  0
   -1.4184    0.0179    0.0961 N   0  0  0  0  0  0  0  0  0  0  0  0
   -2.0246   -0.7336    0.3799 H   0  0  0  0  0  0  0  0  0  0  0  0
   -1.6799    0.6046   -1.0798 C   0  0  0  0  0  0  0  0  0  0  0  0
   -2.2472   -0.3521   -2.1372 C   0  0  0  0  0  0  0  0  0  0  0  0
   -1.3923   -0.8696   -3.1568 N   0  0  0  0  0  0  0  0  0  0  0  0
   -1.8560   -1.8299   -4.0134 C   0  0  0  0  0  0  0  0  0  0  0  0
   -0.8615   -1.8145   -5.0756 C   0  0  0  0  0  0  0  0  0  0  0  0
   -0.1870   -0.2723   -3.5239 C   0  0  0  0  0  0  0  0  0  0  0  0
    0.0082   -0.8303   -4.8708 C   0  0  0  0  0  0  0  0  0  0  0  0
   -0.8503   -2.6570   -6.1381 C   0  0  0  0  0  0  0  0  0  0  0  0
    1.0202   -1.4038   -6.9666 C   0  0  0  0  0  0  0  0  0  0  0  0
    1.0074   -0.5985   -5.8387 C   0  0  0  0  0  0  0  0  0  0  0  0
    1.8874   -1.1789   -7.9104 N   0  0  0  0  0  0  0  0  0  0  0  0
    1.9987   -1.8306   -8.5889 H   0  0  0  0  0  0  0  0  0  0  0  0
    0.0853   -2.3971   -7.0751 C   0  0  0  0  0  0  0  0  0  0  0  0
    0.1972   -1.2205    7.1660 H   0  0  0  0  0  0  0  0  0  0  0  0
   -0.3919    0.4534    7.1616 H   0  0  0  0  0  0  0  0  0  0  0  0
    1.2345    0.1136    6.6277 H   0  0  0  0  0  0  0  0  0  0  0  0
   -2.0628   -0.9580    4.1199 H   0  0  0  0  0  0  0  0  0  0  0  0
   -2.3428   -0.4988    5.8001 H   0  0  0  0  0  0  0  0  0  0  0  0
   -1.7006   -2.0943    5.4591 H   0  0  0  0  0  0  0  0  0  0  0  0
    1.6177   -0.8972    4.3829 H   0  0  0  0  0  0  0  0  0  0  0  0
    0.2335   -1.6582    3.5490 H   0  0  0  0  0  0  0  0  0  0  0  0
    0.7659   -2.3160    5.0891 H   0  0  0  0  0  0  0  0  0  0  0  0
    0.5383    1.5782    4.8424 H   0  0  0  0  0  0  0  0  0  0  0  0
   -1.2279    1.4149    4.7794 H   0  0  0  0  0  0  0  0  0  0  0  0
    2.3930    2.2766    3.0924 H   0  0  0  0  0  0  0  0  0  0  0  0
    1.0865    3.4944    3.1054 H   0  0  0  0  0  0  0  0  0  0  0  0
    3.5136    3.1053   -0.0179 H   0  0  0  0  0  0  0  0  0  0  0  0
    1.8279    4.1355    1.0221 H   0  0  0  0  0  0  0  0  0  0  0  0
    1.6458    1.8013   -0.6262 H   0  0  0  0  0  0  0  0  0  0  0  0
    0.2905    2.7577   -0.3092 H   0  0  0  0  0  0  0  0  0  0  0  0
    0.2921    1.4126    0.9945 N   0  0  0  0  0  0  0  0  0  0  0  0
   -1.5978    1.8667   -1.2257 O   0  0  0  0  0  0  0  0  0  0  0  0
   -2.9838    0.2459   -2.6625 H   0  0  0  0  0  0  0  0  0  0  0  0
   -2.7887   -1.1974   -1.6539 H   0  0  0  0  0  0  0  0  0  0  0  0
   -2.8506   -2.4403   -3.9575 O   0  0  0  0  0  0  0  0  0  0  0  0
   -1.4597   -3.5813   -6.1902 H   0  0  0  0  0  0  0  0  0  0  0  0
    0.5442    0.4197   -2.8999 O   0  0  0  0  0  0  0  0  0  0  0  0
    1.6314    0.3122   -5.7857 H   0  0  0  0  0  0  0  0  0  0  0  0
    2.6639   -0.7052   -7.6821 H   0  0  0  0  0  0  0  0  0  0  0  0
    0.1228   -3.0313   -7.9690 H   0  0  0  0  0  0  0  0  0  0  0  0
  1  2  1  0
  1 29  1  0
  1 30  1  0
  1 31  1  0
  2  3  1  0
  2  4  1  0
  2  5  1  0
  3 32  1  0
  3 33  1  0
  3 34  1  0
  4 35  1  0
  4 36  1  0
  4 37  1  0
  5  6  1  0
  5 38  1  0
  5 39  1  0
  6  7  1  0
  6  8  2  0
  7 13  2  0
  8  9  1  0
  8 46  1  0
  9 11  1  0
  9 40  1  0
  9 41  1  0
 10 11  1  0
 10 42  1  0
 11 12  1  0
 11 43  1  0
 12 44  1  0
 12 45  1  0
 12 46  1  0
 13 14  1  0
 13 46  1  0
 14 15  1  0
 14 16  1  0
 16 17  1  0
 16 47  2  0
 17 18  1  0
 17 48  1  0
 17 49  1  0
 18 19  1  0
 18 21  1  0
 19 20  1  0
 19 50  2  0
 20 22  2  0
 20 23  1  0
 21 22  1  0
 21 52  2  0
 22 25  1  0
 23 28  2  0
 23 51  1  0
 24 25  2  0
 24 26  1  0
 24 28  1  0
 25 53  1  0
 26 27  1  0
 26 54  1  0
 28 55  1  0
M  END
>  <template_idx>  (20) 
4w9c_ligand

>  <smiles>  (20) 
CC(C)(C)Cc1nc(NC(=O)CN2C(=O)c3ccc(N)cc3C2=O)n2c1CC(O)C2

>  <qed>  (20) 
0.5119570380401021

$$$$
sample19
     RDKit          3D

 55 57  0  0  0  0  0  0  0  0999 V2000
    0.2165   -0.0761    6.5766 C   0  0  0  0  0  0  0  0  0  0  0  0
   -0.2873   -0.2237    5.1338 C   0  0  0  0  0  0  0  0  0  0  0  0
   -1.6061   -1.0021    5.0836 C   0  0  0  0  0  0  0  0  0  0  0  0
    0.7757   -0.9319    4.2841 C   0  0  0  0  0  0  0  0  0  0  0  0
   -0.5633    1.1560    4.4845 C   0  0  0  0  0  0  0  0  0  0  0  0
   -1.1119    1.0448    3.1159 C   0  0  0  0  0  0  0  0  0  0  0  0
   -2.2869    0.6693    2.9202 O   0  0  0  0  0  0  0  0  0  0  0  0
   -0.3428    1.4498    2.0483 N   0  0  0  0  0  0  0  0  0  0  0  0
    0.9920    1.8886    2.0958 C   0  0  0  0  0  0  0  0  0  0  0  0
    1.5765    1.9267    0.8647 N   0  0  0  0  0  0  0  0  0  0  0  0
    2.7298    2.7953    0.8190 C   0  0  0  0  0  0  0  0  0  0  0  0
    1.0436    1.5854   -0.4281 C   0  0  0  0  0  0  0  0  0  0  0  0
   -1.0655    1.5431    0.9215 C   0  0  0  0  0  0  0  0  0  0  0  0
   -0.4144    0.9937   -0.2362 C   0  0  0  0  0  0  0  0  0  0  0  0
   -0.2598   -0.0321    0.0276 H   0  0  0  0  0  0  0  0  0  0  0  0
   -1.3640    1.0726   -1.2902 N   0  0  0  0  0  0  0  0  0  0  0  0
   -2.0919   -0.3784   -1.6247 S   0  0  0  0  0  0  0  0  0  0  0  0
   -1.2287   -0.8342   -3.0145 C   0  0  0  0  0  0  0  0  0  0  0  0
   -1.8676   -1.7237   -3.8677 C   0  0  0  0  0  0  0  0  0  0  0  0
   -1.2446   -2.0073   -5.0438 C   0  0  0  0  0  0  0  0  0  0  0  0
   -0.0021   -0.3097   -3.2935 C   0  0  0  0  0  0  0  0  0  0  0  0
    0.5723   -0.5799   -4.5157 C   0  0  0  0  0  0  0  0  0  0  0  0
   -0.0336   -1.4497   -5.3296 C   0  0  0  0  0  0  0  0  0  0  0  0
    0.6105   -1.7877   -6.4429 N   0  0  0  0  0  0  0  0  0  0  0  0
    1.7320   -1.1018   -6.7347 N   0  0  0  0  0  0  0  0  0  0  0  0
    2.2450   -1.7596   -7.7561 C   0  0  0  0  0  0  0  0  0  0  0  0
    1.5143   -2.8320   -8.1319 N   0  0  0  0  0  0  0  0  0  0  0  0
    0.4703   -2.8009   -7.2910 C   0  0  0  0  0  0  0  0  0  0  0  0
    0.2979   -1.0619    6.9816 H   0  0  0  0  0  0  0  0  0  0  0  0
   -0.4691    0.5465    7.0857 H   0  0  0  0  0  0  0  0  0  0  0  0
    1.1988    0.4023    6.5510 H   0  0  0  0  0  0  0  0  0  0  0  0
   -1.8729   -1.2821    4.0267 H   0  0  0  0  0  0  0  0  0  0  0  0
   -2.4357   -0.3970    5.4485 H   0  0  0  0  0  0  0  0  0  0  0  0
   -1.5149   -1.9025    5.6721 H   0  0  0  0  0  0  0  0  0  0  0  0
    1.6957   -0.3009    4.2329 H   0  0  0  0  0  0  0  0  0  0  0  0
    0.4313   -1.1254    3.1930 H   0  0  0  0  0  0  0  0  0  0  0  0
    0.9965   -1.8804    4.7355 H   0  0  0  0  0  0  0  0  0  0  0  0
    0.3667    1.7746    4.5145 H   0  0  0  0  0  0  0  0  0  0  0  0
   -1.3186    1.6840    5.1180 H   0  0  0  0  0  0  0  0  0  0  0  0
    1.5766    2.2599    3.1107 O   0  0  0  0  0  0  0  0  0  0  0  0
    3.2801    2.6991    1.7677 H   0  0  0  0  0  0  0  0  0  0  0  0
    3.4336    2.5431   -0.0107 H   0  0  0  0  0  0  0  0  0  0  0  0
    2.4218    3.8124    0.7290 H   0  0  0  0  0  0  0  0  0  0  0  0
    1.6462    0.8682   -0.9147 H   0  0  0  0  0  0  0  0  0  0  0  0
    1.0010    2.4069   -1.0651 H   0  0  0  0  0  0  0  0  0  0  0  0
   -2.2008    2.1065    0.9364 O   0  0  0  0  0  0  0  0  0  0  0  0
   -2.2324    1.6432   -0.9781 H   0  0  0  0  0  0  0  0  0  0  0  0
   -3.4361   -0.2127   -1.9398 O   0  0  0  0  0  0  0  0  0  0  0  0
   -1.8142   -1.2703   -0.4990 O   0  0  0  0  0  0  0  0  0  0  0  0
   -2.8381   -2.1627   -3.5673 H   0  0  0  0  0  0  0  0  0  0  0  0
   -1.7706   -2.7017   -5.7328 H   0  0  0  0  0  0  0  0  0  0  0  0
    0.5008    0.3728   -2.5885 H   0  0  0  0  0  0  0  0  0  0  0  0
    1.4857   -0.1045   -4.8203 H   0  0  0  0  0  0  0  0  0  0  0  0
    3.2064   -1.5200   -8.1606 H   0  0  0  0  0  0  0  0  0  0  0  0
   -0.3436   -3.4919   -7.2014 H   0  0  0  0  0  0  0  0  0  0  0  0
  1  2  1  0
  1 29  1  0
  1 30  1  0
  1 31  1  0
  2  3  1  0
  2  4  1  0
  2  5  1  0
  3 32  1  0
  3 33  1  0
  3 34  1  0
  4 35  1  0
  4 36  1  0
  4 37  1  0
  5  6  1  0
  5 38  1  0
  5 39  1  0
  6  7  2  0
  6  8  1  0
  8  9  1  0
  8 13  1  0
  9 10  1  0
  9 40  2  0
 10 11  1  0
 10 12  1  0
 11 41  1  0
 11 42  1  0
 11 43  1  0
 12 14  1  0
 12 44  1  0
 12 45  1  0
 13 14  1  0
 13 46  2  0
 14 15  1  0
 14 16  1  0
 16 17  1  0
 16 47  1  0
 17 18  1  0
 17 48  2  0
 17 49  2  0
 18 19  2  0
 18 21  1  0
 19 20  1  0
 19 50  1  0
 20 23  2  0
 20 51  1  0
 21 22  2  0
 21 52  1  0
 22 23  1  0
 22 53  1  0
 23 24  1  0
 24 25  1  0
 24 28  1  0
 25 26  2  0
 26 27  1  0
 26 54  1  0
 27 28  2  0
 28 55  1  0
M  END
>  <template_idx>  (21) 
4w9c_ligand

>  <smiles>  (21) 
CN1CC(NS(=O)(=O)c2ccc(-n3cncn3)cc2)C(=O)N(C(=O)CC(C)(C)C)C1=O

>  <qed>  (21) 
0.7137605733039647

$$$$
sample20
     RDKit          3D

 55 57  0  0  0  0  0  0  0  0999 V2000
    0.3546   -0.3733    6.0828 C   0  0  0  0  0  0  0  0  0  0  0  0
   -0.1884   -0.2925    4.6252 C   0  0  0  0  0  0  0  0  0  0  0  0
   -1.5064   -1.0504    4.4638 C   0  0  0  0  0  0  0  0  0  0  0  0
    0.8480   -0.9023    3.6719 C   0  0  0  0  0  0  0  0  0  0  0  0
   -0.4440    1.1700    4.2802 C   0  0  0  0  0  0  0  0  0  0  0  0
   -0.8772    1.4621    2.8734 C   0  0  0  0  0  0  0  0  0  0  0  0
   -2.1370    1.6112    2.6349 O   0  0  0  0  0  0  0  0  0  0  0  0
    0.1555    1.6822    1.9250 C   0  0  0  0  0  0  0  0  0  0  0  0
    1.5150    1.9013    2.0863 C   0  0  0  0  0  0  0  0  0  0  0  0
    2.0733    2.4166    0.7544 C   0  0  0  0  0  0  0  0  0  0  0  0
    2.0937    3.8484    0.7543 O   0  0  0  0  0  0  0  0  0  0  0  0
    1.0295    1.9045   -0.3061 C   0  0  0  0  0  0  0  0  0  0  0  0
   -0.2985    1.7027    0.4899 C   0  0  0  0  0  0  0  0  0  0  0  0
   -1.0945    0.4624    0.3248 C   0  0  0  0  0  0  0  0  0  0  0  0
   -1.1203   -0.5089    1.1408 O   0  0  0  0  0  0  0  0  0  0  0  0
   -1.8824    0.4891   -0.7326 N   0  0  0  0  0  0  0  0  0  0  0  0
   -2.3224   -0.6355   -1.4790 C   0  0  0  0  0  0  0  0  0  0  0  0
   -1.4667   -0.8707   -2.6520 C   0  0  0  0  0  0  0  0  0  0  0  0
   -1.9069   -1.8129   -3.5269 C   0  0  0  0  0  0  0  0  0  0  0  0
   -1.2056   -2.0568   -4.6835 C   0  0  0  0  0  0  0  0  0  0  0  0
   -0.2976   -0.2332   -2.9065 C   0  0  0  0  0  0  0  0  0  0  0  0
    0.3951   -0.4673   -4.0690 C   0  0  0  0  0  0  0  0  0  0  0  0
   -0.0510   -1.3869   -4.9768 C   0  0  0  0  0  0  0  0  0  0  0  0
    0.6505   -1.6836   -6.1353 C   0  0  0  0  0  0  0  0  0  0  0  0
    1.7969   -0.9825   -6.4006 N   0  0  0  0  0  0  0  0  0  0  0  0
    2.4248   -1.3973   -7.4292 C   0  0  0  0  0  0  0  0  0  0  0  0
    1.6759   -2.7098   -8.3240 S   0  0  0  0  0  0  0  0  0  0  0  0
    0.4262   -2.6407   -7.0687 C   0  0  0  0  0  0  0  0  0  0  0  0
    0.4192   -1.4069    6.3539 H   0  0  0  0  0  0  0  0  0  0  0  0
   -0.2941    0.1677    6.7212 H   0  0  0  0  0  0  0  0  0  0  0  0
    1.3455    0.0704    6.1161 H   0  0  0  0  0  0  0  0  0  0  0  0
   -1.9029   -0.8899    3.4021 H   0  0  0  0  0  0  0  0  0  0  0  0
   -2.2309   -0.6527    5.1682 H   0  0  0  0  0  0  0  0  0  0  0  0
   -1.3452   -2.0962    4.6734 H   0  0  0  0  0  0  0  0  0  0  0  0
    1.8368   -0.3641    3.7020 H   0  0  0  0  0  0  0  0  0  0  0  0
    0.4825   -0.8612    2.6105 H   0  0  0  0  0  0  0  0  0  0  0  0
    1.0127   -1.9455    4.0138 H   0  0  0  0  0  0  0  0  0  0  0  0
    0.4217    1.7768    4.5049 H   0  0  0  0  0  0  0  0  0  0  0  0
   -1.2450    1.5267    4.9578 H   0  0  0  0  0  0  0  0  0  0  0  0
    3.2403    1.5356    2.6537 H   0  0  0  0  0  0  0  0  0  0  0  0
    2.2336    1.8163    3.0692 O   0  0  0  0  0  0  0  0  0  0  0  0
    3.1076    2.0623    0.5646 H   0  0  0  0  0  0  0  0  0  0  0  0
    1.1092    3.9401    1.1578 H   0  0  0  0  0  0  0  0  0  0  0  0
    1.3568    0.9038   -0.6940 H   0  0  0  0  0  0  0  0  0  0  0  0
    0.9288    2.6484   -1.0805 H   0  0  0  0  0  0  0  0  0  0  0  0
   -0.9956    2.5596    0.2456 H   0  0  0  0  0  0  0  0  0  0  0  0
   -2.2785    1.4020   -1.0186 H   0  0  0  0  0  0  0  0  0  0  0  0
   -3.3658   -0.4699   -1.8263 H   0  0  0  0  0  0  0  0  0  0  0  0
   -2.3466   -1.4754   -0.8018 H   0  0  0  0  0  0  0  0  0  0  0  0
   -2.8289   -2.3924   -3.3033 H   0  0  0  0  0  0  0  0  0  0  0  0
   -1.6240   -2.8225   -5.3781 H   0  0  0  0  0  0  0  0  0  0  0  0
    0.0898    0.5062   -2.1751 H   0  0  0  0  0  0  0  0  0  0  0  0
    1.2885    0.0724   -4.2784 H   0  0  0  0  0  0  0  0  0  0  0  0
    3.3436   -1.0243   -7.6944 H   0  0  0  0  0  0  0  0  0  0  0  0
   -0.3988   -3.2330   -7.0816 H   0  0  0  0  0  0  0  0  0  0  0  0
  1  2  1  0
  1 29  1  0
  1 30  1  0
  1 31  1  0
  2  3  1  0
  2  4  1  0
  2  5  1  0
  3 32  1  0
  3 33  1  0
  3 34  1  0
  4 35  1  0
  4 36  1  0
  4 37  1  0
  5  6  1  0
  5 38  1  0
  5 39  1  0
  6  7  2  0
  6  8  1  0
  8  9  2  0
  8 13  1  0
  9 10  1  0
  9 41  1  0
 10 11  1  0
 10 12  1  0
 10 42  1  0
 11 43  1  0
 12 13  1  0
 12 44  1  0
 12 45  1  0
 13 14  1  0
 13 46  1  0
 14 15  2  0
 14 16  1  0
 16 17  1  0
 16 47  1  0
 17 18  1  0
 17 48  1  0
 17 49  1  0
 18 19  2  0
 18 21  1  0
 19 20  1  0
 19 50  1  0
 20 23  2  0
 20 51  1  0
 21 22  2  0
 21 52  1  0
 22 23  1  0
 22 53  1  0
 23 24  1  0
 24 25  1  0
 24 28  2  0
 25 26  2  0
 26 27  1  0
 26 54  1  0
 27 28  1  0
 28 55  1  0
 40 41  1  0
M  END
>  <template_idx>  (22) 
4w9c_ligand

>  <smiles>  (22) 
CC(C)(C)CC(=O)C1=C(O)C(O)CC1C(=O)NCc1ccc(-c2cscn2)cc1

>  <qed>  (22) 
0.6703534606429914

$$$$
sample21
     RDKit          3D

 55 57  0  0  0  0  0  0  0  0999 V2000
    0.3281   -0.2557    6.1384 C   0  0  0  0  0  0  0  0  0  0  0  0
   -0.0582   -0.1822    4.6198 C   0  0  0  0  0  0  0  0  0  0  0  0
   -1.4309   -0.8388    4.3851 C   0  0  0  0  0  0  0  0  0  0  0  0
    0.9894   -0.9372    3.7909 C   0  0  0  0  0  0  0  0  0  0  0  0
   -0.1480    1.2688    4.1750 C   0  0  0  0  0  0  0  0  0  0  0  0
   -0.6582    1.4665    2.8035 C   0  0  0  0  0  0  0  0  0  0  0  0
   -1.9062    1.7113    2.6212 O   0  0  0  0  0  0  0  0  0  0  0  0
    0.2309    1.5826    1.8210 N   0  0  0  0  0  0  0  0  0  0  0  0
    1.6839    1.5795    1.7503 C   0  0  0  0  0  0  0  0  0  0  0  0
    1.9932    2.4062    0.4615 C   0  0  0  0  0  0  0  0  0  0  0  0
    1.8330    3.7847    0.5929 O   0  0  0  0  0  0  0  0  0  0  0  0
    0.8094    1.9046   -0.4439 C   0  0  0  0  0  0  0  0  0  0  0  0
   -0.3633    1.5404    0.4987 C   0  0  0  0  0  0  0  0  0  0  0  0
   -0.9915    0.1781    0.4550 C   0  0  0  0  0  0  0  0  0  0  0  0
   -0.6853   -0.7614    1.2170 O   0  0  0  0  0  0  0  0  0  0  0  0
   -1.9671    0.1050   -0.4477 N   0  0  0  0  0  0  0  0  0  0  0  0
   -2.2559   -1.0421   -1.2277 C   0  0  0  0  0  0  0  0  0  0  0  0
   -1.4727   -1.0925   -2.4821 C   0  0  0  0  0  0  0  0  0  0  0  0
   -1.8877   -1.9517   -3.4654 C   0  0  0  0  0  0  0  0  0  0  0  0
   -1.1996   -1.9969   -4.6565 C   0  0  0  0  0  0  0  0  0  0  0  0
   -0.3437   -0.3629   -2.6897 C   0  0  0  0  0  0  0  0  0  0  0  0
    0.3137   -0.4147   -3.8923 C   0  0  0  0  0  0  0  0  0  0  0  0
   -0.0736   -1.2478   -4.8666 C   0  0  0  0  0  0  0  0  0  0  0  0
    0.6574   -1.3497   -5.9973 C   0  0  0  0  0  0  0  0  0  0  0  0
    1.8146   -0.6797   -6.1113 O   0  0  0  0  0  0  0  0  0  0  0  0
    2.3982   -1.1139   -7.2402 C   0  0  0  0  0  0  0  0  0  0  0  0
    1.6430   -1.9799   -7.9120 N   0  0  0  0  0  0  0  0  0  0  0  0
    0.5093   -2.0777   -7.1623 C   0  0  0  0  0  0  0  0  0  0  0  0
    0.3457   -1.2768    6.4278 H   0  0  0  0  0  0  0  0  0  0  0  0
   -0.3811    0.3067    6.6778 H   0  0  0  0  0  0  0  0  0  0  0  0
    1.3038    0.1733    6.2492 H   0  0  0  0  0  0  0  0  0  0  0  0
   -1.7397   -0.7455    3.2882 H   0  0  0  0  0  0  0  0  0  0  0  0
   -2.1576   -0.3300    4.9848 H   0  0  0  0  0  0  0  0  0  0  0  0
   -1.3785   -1.8881    4.6519 H   0  0  0  0  0  0  0  0  0  0  0  0
    1.9758   -0.4458    3.8493 H   0  0  0  0  0  0  0  0  0  0  0  0
    0.6644   -1.0054    2.7325 H   0  0  0  0  0  0  0  0  0  0  0  0
    1.0808   -1.9566    4.2032 H   0  0  0  0  0  0  0  0  0  0  0  0
    0.8142    1.7751    4.3269 H   0  0  0  0  0  0  0  0  0  0  0  0
   -0.8744    1.7693    4.8409 H   0  0  0  0  0  0  0  0  0  0  0  0
    2.0088    0.5577    1.6050 H   0  0  0  0  0  0  0  0  0  0  0  0
    2.1535    2.0210    2.6072 H   0  0  0  0  0  0  0  0  0  0  0  0
    2.9771    2.1827    0.0878 H   0  0  0  0  0  0  0  0  0  0  0  0
    0.9077    3.8498    1.0094 H   0  0  0  0  0  0  0  0  0  0  0  0
    0.6089    2.5850   -1.2531 H   0  0  0  0  0  0  0  0  0  0  0  0
    1.1137    1.0031   -1.0246 H   0  0  0  0  0  0  0  0  0  0  0  0
   -1.1842    2.3051    0.3484 H   0  0  0  0  0  0  0  0  0  0  0  0
   -2.6442    0.9055   -0.4599 H   0  0  0  0  0  0  0  0  0  0  0  0
   -3.2981   -1.0514   -1.4925 H   0  0  0  0  0  0  0  0  0  0  0  0
   -2.0663   -1.9176   -0.6320 H   0  0  0  0  0  0  0  0  0  0  0  0
   -2.7636   -2.6099   -3.2984 H   0  0  0  0  0  0  0  0  0  0  0  0
   -1.5745   -2.6602   -5.4630 H   0  0  0  0  0  0  0  0  0  0  0  0
    0.0042    0.2666   -1.9230 H   0  0  0  0  0  0  0  0  0  0  0  0
    1.3703    0.3923   -4.0898 F   0  0  0  0  0  0  0  0  0  0  0  0
    3.3371   -0.8519   -7.5179 H   0  0  0  0  0  0  0  0  0  0  0  0
   -0.3659   -2.5970   -7.4711 H   0  0  0  0  0  0  0  0  0  0  0  0
  1  2  1  0
  1 29  1  0
  1 30  1  0
  1 31  1  0
  2  3  1  0
  2  4  1  0
  2  5  1  0
  3 32  1  0
  3 33  1  0
  3 34  1  0
  4 35  1  0
  4 36  1  0
  4 37  1  0
  5  6  1  0
  5 38  1  0
  5 39  1  0
  6  7  2  0
  6  8  1  0
  8  9  1  0
  8 13  1  0
  9 10  1  0
  9 40  1  0
  9 41  1  0
 10 11  1  0
 10 12  1  0
 10 42  1  0
 11 43  1  0
 12 13  1  0
 12 44  1  0
 12 45  1  0
 13 14  1  0
 13 46  1  0
 14 15  2  0
 14 16  1  0
 16 17  1  0
 16 47  1  0
 17 18  1  0
 17 48  1  0
 17 49  1  0
 18 19  2  0
 18 21  1  0
 19 20  1  0
 19 50  1  0
 20 23  2  0
 20 51  1  0
 21 22  2  0
 21 52  1  0
 22 23  1  0
 22 53  1  0
 23 24  1  0
 24 25  1  0
 24 28  2  0
 25 26  1  0
 26 27  2  0
 26 54  1  0
 27 28  1  0
 28 55  1  0
M  END
>  <template_idx>  (23) 
4w9c_ligand

>  <smiles>  (23) 
CC(C)(C)CC(=O)N1CC(O)CC1C(=O)NCc1ccc(-c2cnco2)c(F)c1

>  <qed>  (23) 
0.7997781705804246

$$$$
