template4m0y_ligand
     RDKit          3D

 35 37  0  0  0  0  0  0  0  0999 V2000
    3.4009    3.2430   -0.3146 C   0  0  0  0  0  0  0  0  0  0  0  0
    2.7039    2.5420    0.7134 C   0  0  0  0  0  0  0  0  0  0  0  0
    1.6399    1.7290    0.4064 C   0  0  0  0  0  0  0  0  0  0  0  0
    1.2059    1.5680   -0.9616 C   0  0  0  0  0  0  0  0  0  0  0  0
    1.9059    2.2990   -1.9936 C   0  0  0  0  0  0  0  0  0  0  0  0
    3.0169    3.1290   -1.6376 C   0  0  0  0  0  0  0  0  0  0  0  0
    1.4819    2.2150   -3.3656 C   0  0  0  0  0  0  0  0  0  0  0  0
    0.4009    1.4320   -3.7146 C   0  0  0  0  0  0  0  0  0  0  0  0
   -0.3051    0.6800   -2.7346 C   0  0  0  0  0  0  0  0  0  0  0  0
    0.0939    0.7300   -1.3896 C   0  0  0  0  0  0  0  0  0  0  0  0
   -0.6071   -0.1390   -0.4706 N   0  0  0  0  0  0  0  0  0  0  0  0
   -0.0001   -0.8850    0.5504 C   0  0  0  0  0  0  0  0  0  0  0  0
   -1.0321   -1.5880    1.1594 C   0  0  0  0  0  0  0  0  0  0  0  0
   -2.2331   -1.2060    0.4404 C   0  0  0  0  0  0  0  0  0  0  0  0
   -1.9351   -0.3240   -0.5356 N   0  0  0  0  0  0  0  0  0  0  0  0
   -3.6151   -1.6230    0.7274 C   0  0  0  0  0  0  0  0  0  0  0  0
   -3.8351   -2.2730    1.7324 O   0  0  0  0  0  0  0  0  0  0  0  0
   -4.6641   -1.2260   -0.1196 N   0  0  0  0  0  0  0  0  0  0  0  0
   -0.9891   -2.5020    2.2084 N   0  0  0  0  0  0  0  0  0  0  0  0
    0.1889   -2.8680    2.9544 C   0  0  0  0  0  0  0  0  0  0  0  0
    1.3279   -2.3810    2.7854 O   0  0  0  0  0  0  0  0  0  0  0  0
   -0.0091   -3.8230    3.9444 N   0  0  0  0  0  0  0  0  0  0  0  0
    4.2433    3.8738   -0.0549 H   0  0  0  0  0  0  0  0  0  0  0  0
    3.0163    2.6516    1.7456 H   0  0  0  0  0  0  0  0  0  0  0  0
    1.1207    1.2028    1.1993 H   0  0  0  0  0  0  0  0  0  0  0  0
    3.5576    3.6687   -2.4066 H   0  0  0  0  0  0  0  0  0  0  0  0
    2.0146    2.7699   -4.1294 H   0  0  0  0  0  0  0  0  0  0  0  0
    0.0848    1.3891   -4.7506 H   0  0  0  0  0  0  0  0  0  0  0  0
   -1.1511    0.0684   -3.0266 H   0  0  0  0  0  0  0  0  0  0  0  0
    1.0571   -0.9082    0.8108 H   0  0  0  0  0  0  0  0  0  0  0  0
   -5.6019   -1.5112    0.0785 H   0  0  0  0  0  0  0  0  0  0  0  0
   -4.4727   -0.6583   -0.9203 H   0  0  0  0  0  0  0  0  0  0  0  0
   -1.8490   -2.9424    2.4666 H   0  0  0  0  0  0  0  0  0  0  0  0
    0.7604   -4.1289    4.5051 H   0  0  0  0  0  0  0  0  0  0  0  0
   -0.9210   -4.2043    4.0961 H   0  0  0  0  0  0  0  0  0  0  0  0
  1  2  2  0
  1  6  1  0
  1 23  1  0
  2  3  1  0
  2 24  1  0
  3  4  2  0
  3 25  1  0
  4  5  1  0
  4 10  1  0
  5  6  2  0
  5  7  1  0
  6 26  1  0
  7  8  2  0
  7 27  1  0
  8  9  1  0
  8 28  1  0
  9 10  2  0
  9 29  1  0
 10 11  1  0
 11 12  1  0
 11 15  1  0
 12 13  2  0
 12 30  1  0
 13 14  1  0
 13 19  1  0
 14 15  2  0
 14 16  1  0
 16 17  2  0
 16 18  1  0
 18 31  1  0
 18 32  1  0
 19 20  1  0
 19 33  1  0
 20 21  2  0
 20 22  1  0
 22 34  1  0
 22 35  1  0
M  END
>  <template_idx>  (1) 
4m0y_ligand

>  <smiles>  (1) 
NC(=O)Nc1cn(-c2cccc3ccccc23)nc1C(N)=O

$$$$
sample0
     RDKit          3D

 35 37  0  0  0  0  0  0  0  0999 V2000
    3.4356    3.0363   -0.1938 C   0  0  0  0  0  0  0  0  0  0  0  0
    2.6407    2.3915    0.7753 C   0  0  0  0  0  0  0  0  0  0  0  0
    1.5205    1.6872    0.3964 C   0  0  0  0  0  0  0  0  0  0  0  0
    1.1811    1.5459   -0.9735 C   0  0  0  0  0  0  0  0  0  0  0  0
    1.9674    2.2430   -1.9556 C   0  0  0  0  0  0  0  0  0  0  0  0
    3.0953    2.9790   -1.5382 C   0  0  0  0  0  0  0  0  0  0  0  0
    1.6229    2.1563   -3.3164 C   0  0  0  0  0  0  0  0  0  0  0  0
    0.5484    1.4058   -3.7078 C   0  0  0  0  0  0  0  0  0  0  0  0
   -0.1973    0.6698   -2.8185 C   0  0  0  0  0  0  0  0  0  0  0  0
    0.1340    0.7496   -1.4770 C   0  0  0  0  0  0  0  0  0  0  0  0
   -0.5689   -0.0754   -0.6105 C   0  0  0  0  0  0  0  0  0  0  0  0
   -0.0962   -0.8038    0.3923 C   0  0  0  0  0  0  0  0  0  0  0  0
   -1.1152   -1.5092    1.0550 C   0  0  0  0  0  0  0  0  0  0  0  0
   -2.3638   -1.2811    0.5241 C   0  0  0  0  0  0  0  0  0  0  0  0
   -2.2989   -0.2296   -0.8266 S   0  0  0  0  0  0  0  0  0  0  0  0
   -3.6780   -1.7927    0.9567 C   0  0  0  0  0  0  0  0  0  0  0  0
   -3.7782   -2.5472    1.8987 O   0  0  0  0  0  0  0  0  0  0  0  0
   -4.7521   -1.3422    0.1889 N   0  0  0  0  0  0  0  0  0  0  0  0
   -0.9632   -2.3111    2.1112 N   0  0  0  0  0  0  0  0  0  0  0  0
    0.2209   -2.6463    2.7332 C   0  0  0  0  0  0  0  0  0  0  0  0
    1.3890   -2.2810    2.3314 O   0  0  0  0  0  0  0  0  0  0  0  0
    0.0233   -3.4273    3.8124 N   0  0  0  0  0  0  0  0  0  0  0  0
    4.3482    3.5291    0.1004 H   0  0  0  0  0  0  0  0  0  0  0  0
    2.9453    2.4379    1.8224 H   0  0  0  0  0  0  0  0  0  0  0  0
    0.9014    1.3128    1.1924 H   0  0  0  0  0  0  0  0  0  0  0  0
    3.6895    3.4657   -2.2800 H   0  0  0  0  0  0  0  0  0  0  0  0
    2.1749    2.7386   -3.9937 H   0  0  0  0  0  0  0  0  0  0  0  0
    0.2562    1.3934   -4.7796 H   0  0  0  0  0  0  0  0  0  0  0  0
   -1.0119    0.0457   -3.1869 H   0  0  0  0  0  0  0  0  0  0  0  0
    0.9494   -0.9569    0.6929 H   0  0  0  0  0  0  0  0  0  0  0  0
   -5.5929   -1.7367    0.4131 H   0  0  0  0  0  0  0  0  0  0  0  0
   -4.6548   -0.6550   -0.4852 H   0  0  0  0  0  0  0  0  0  0  0  0
   -1.8713   -2.7130    2.4383 H   0  0  0  0  0  0  0  0  0  0  0  0
    0.8134   -3.7655    4.2696 H   0  0  0  0  0  0  0  0  0  0  0  0
   -0.9151   -3.7132    4.0384 H   0  0  0  0  0  0  0  0  0  0  0  0
  1  2  2  0
  1  6  1  0
  1 23  1  0
  2  3  1  0
  2 24  1  0
  3  4  2  0
  3 25  1  0
  4  5  1  0
  4 10  1  0
  5  6  2  0
  5  7  1  0
  6 26  1  0
  7  8  2  0
  7 27  1  0
  8  9  1  0
  8 28  1  0
  9 10  2  0
  9 29  1  0
 10 11  1  0
 11 12  2  0
 11 15  1  0
 12 13  1  0
 12 30  1  0
 13 14  2  0
 13 19  1  0
 14 15  1  0
 14 16  1  0
 16 17  2  0
 16 18  1  0
 18 31  1  0
 18 32  1  0
 19 20  1  0
 19 33  1  0
 20 21  2  0
 20 22  1  0
 22 34  1  0
 22 35  1  0
M  END
>  <template_idx>  (2) 
4m0y_ligand

>  <smiles>  (2) 
NC(=O)Nc1cc(-c2cccc3ccccc23)sc1C(N)=O

>  <qed>  (2) 
0.692070445205142

$$$$
sample1
     RDKit          3D

 35 37  0  0  0  0  0  0  0  0999 V2000
    3.5004    2.8254   -0.0933 C   0  0  0  0  0  0  0  0  0  0  0  0
    2.6053    2.3539    0.8998 C   0  0  0  0  0  0  0  0  0  0  0  0
    1.4099    1.7332    0.5103 C   0  0  0  0  0  0  0  0  0  0  0  0
    1.1107    1.5224   -0.8673 C   0  0  0  0  0  0  0  0  0  0  0  0
    1.9944    2.0168   -1.8244 C   0  0  0  0  0  0  0  0  0  0  0  0
    3.1914    2.6421   -1.4496 C   0  0  0  0  0  0  0  0  0  0  0  0
    1.6741    1.8628   -3.1594 N   0  0  0  0  0  0  0  0  0  0  0  0
    0.5391    1.3756   -3.7064 C   0  0  0  0  0  0  0  0  0  0  0  0
   -0.3964    0.8834   -2.7644 C   0  0  0  0  0  0  0  0  0  0  0  0
   -0.0264    0.8472   -1.4729 C   0  0  0  0  0  0  0  0  0  0  0  0
   -0.7115   -0.0006   -0.6432 C   0  0  0  0  0  0  0  0  0  0  0  0
   -0.1152   -0.7001    0.3625 C   0  0  0  0  0  0  0  0  0  0  0  0
   -1.1169   -1.4476    1.0626 C   0  0  0  0  0  0  0  0  0  0  0  0
   -2.4548   -1.2943    0.5148 C   0  0  0  0  0  0  0  0  0  0  0  0
   -2.3599   -0.2770   -0.8933 S   0  0  0  0  0  0  0  0  0  0  0  0
   -3.6953   -1.8031    0.9366 C   0  0  0  0  0  0  0  0  0  0  0  0
   -3.8144   -2.4280    1.9276 O   0  0  0  0  0  0  0  0  0  0  0  0
   -4.7253   -1.3982    0.0675 N   0  0  0  0  0  0  0  0  0  0  0  0
   -0.9481   -2.2165    2.1201 N   0  0  0  0  0  0  0  0  0  0  0  0
    0.2963   -2.5213    2.5838 C   0  0  0  0  0  0  0  0  0  0  0  0
    1.3721   -2.1475    2.0176 O   0  0  0  0  0  0  0  0  0  0  0  0
    0.1796   -3.2816    3.7436 N   0  0  0  0  0  0  0  0  0  0  0  0
    4.3842    3.3604    0.2051 H   0  0  0  0  0  0  0  0  0  0  0  0
    2.8831    2.4446    1.9401 H   0  0  0  0  0  0  0  0  0  0  0  0
    0.7589    1.4690    1.3308 H   0  0  0  0  0  0  0  0  0  0  0  0
    3.8382    3.0188   -2.2251 H   0  0  0  0  0  0  0  0  0  0  0  0
    2.2888    2.3206   -3.8518 H   0  0  0  0  0  0  0  0  0  0  0  0
    0.3880    1.3864   -4.9329 O   0  0  0  0  0  0  0  0  0  0  0  0
   -1.3275    0.4659   -3.1796 H   0  0  0  0  0  0  0  0  0  0  0  0
    0.9539   -0.7208    0.5323 H   0  0  0  0  0  0  0  0  0  0  0  0
   -5.6006   -1.5220    0.3510 H   0  0  0  0  0  0  0  0  0  0  0  0
   -4.5728   -1.0303   -0.8474 H   0  0  0  0  0  0  0  0  0  0  0  0
   -1.8053   -2.6027    2.5504 H   0  0  0  0  0  0  0  0  0  0  0  0
    1.0235   -3.5334    4.1633 H   0  0  0  0  0  0  0  0  0  0  0  0
   -0.7216   -3.6036    4.0913 H   0  0  0  0  0  0  0  0  0  0  0  0
  1  2  2  0
  1  6  1  0
  1 23  1  0
  2  3  1  0
  2 24  1  0
  3  4  2  0
  3 25  1  0
  4  5  1  0
  4 10  1  0
  5  6  2  0
  5  7  1  0
  6 26  1  0
  7  8  1  0
  7 27  1  0
  8  9  1  0
  8 28  2  0
  9 10  2  0
  9 29  1  0
 10 11  1  0
 11 12  1  0
 11 15  2  0
 12 13  2  0
 12 30  1  0
 13 14  1  0
 13 19  1  0
 14 15  1  0
 14 16  1  0
 16 17  2  0
 16 18  1  0
 18 31  1  0
 18 32  1  0
 19 20  1  0
 19 33  1  0
 20 21  2  0
 20 22  1  0
 22 34  1  0
 22 35  1  0
M  CHG  1  15   1
M  END
>  <template_idx>  (3) 
4m0y_ligand

>  <smiles>  (3) 
NC(=O)NC1=CC(c2cc(=O)[nH]c3ccccc23)=[S+]C1C(N)=O

>  <qed>  (3) 
0.44909841769499687

$$$$
sample2
     RDKit          3D

 35 37  0  0  0  0  0  0  0  0999 V2000
    3.2960    3.2145   -0.2950 C   0  0  0  0  0  0  0  0  0  0  0  0
    2.5377    2.6199    0.7194 C   0  0  0  0  0  0  0  0  0  0  0  0
    1.4390    1.8311    0.3935 C   0  0  0  0  0  0  0  0  0  0  0  0
    1.0820    1.5515   -0.9629 C   0  0  0  0  0  0  0  0  0  0  0  0
    1.8239    2.2493   -1.9799 C   0  0  0  0  0  0  0  0  0  0  0  0
    2.9361    3.0598   -1.6248 C   0  0  0  0  0  0  0  0  0  0  0  0
    1.4545    2.1192   -3.3166 C   0  0  0  0  0  0  0  0  0  0  0  0
    0.3981    1.3123   -3.6848 C   0  0  0  0  0  0  0  0  0  0  0  0
   -0.3191    0.5526   -2.7365 C   0  0  0  0  0  0  0  0  0  0  0  0
    0.0746    0.6571   -1.4043 C   0  0  0  0  0  0  0  0  0  0  0  0
   -0.5267   -0.1750   -0.4521 C   0  0  0  0  0  0  0  0  0  0  0  0
    0.0480   -0.8305    0.6031 C   0  0  0  0  0  0  0  0  0  0  0  0
   -0.9884   -1.6210    1.1854 C   0  0  0  0  0  0  0  0  0  0  0  0
   -2.1629   -1.3442    0.4628 C   0  0  0  0  0  0  0  0  0  0  0  0
   -1.8663   -0.5060   -0.5775 O   0  0  0  0  0  0  0  0  0  0  0  0
   -3.5466   -1.7964    0.6725 C   0  0  0  0  0  0  0  0  0  0  0  0
   -3.8078   -2.6304    1.5520 O   0  0  0  0  0  0  0  0  0  0  0  0
   -4.4549   -1.1453   -0.1634 N   0  0  0  0  0  0  0  0  0  0  0  0
   -0.9089   -2.4704    2.2098 N   0  0  0  0  0  0  0  0  0  0  0  0
    0.2234   -2.7193    2.9361 C   0  0  0  0  0  0  0  0  0  0  0  0
    1.3735   -2.1776    2.7397 O   0  0  0  0  0  0  0  0  0  0  0  0
    0.0365   -3.6195    3.9468 N   0  0  0  0  0  0  0  0  0  0  0  0
    4.1061    3.8614   -0.0321 H   0  0  0  0  0  0  0  0  0  0  0  0
    2.7630    2.8319    1.7504 H   0  0  0  0  0  0  0  0  0  0  0  0
    0.8732    1.4730    1.2033 H   0  0  0  0  0  0  0  0  0  0  0  0
    3.4885    3.5089   -2.3827 H   0  0  0  0  0  0  0  0  0  0  0  0
    1.9720    2.6927   -4.0174 H   0  0  0  0  0  0  0  0  0  0  0  0
    0.1037    1.2710   -4.7304 H   0  0  0  0  0  0  0  0  0  0  0  0
   -1.1552   -0.0809   -3.0525 H   0  0  0  0  0  0  0  0  0  0  0  0
    1.0877   -0.8739    0.9686 H   0  0  0  0  0  0  0  0  0  0  0  0
   -5.3898   -1.4077   -0.0582 H   0  0  0  0  0  0  0  0  0  0  0  0
   -4.1414   -0.4401   -0.7748 H   0  0  0  0  0  0  0  0  0  0  0  0
   -1.8142   -2.9390    2.4351 H   0  0  0  0  0  0  0  0  0  0  0  0
    0.8160   -3.9327    4.4363 H   0  0  0  0  0  0  0  0  0  0  0  0
   -0.8514   -4.0962    4.0309 H   0  0  0  0  0  0  0  0  0  0  0  0
  1  2  2  0
  1  6  1  0
  1 23  1  0
  2  3  1  0
  2 24  1  0
  3  4  2  0
  3 25  1  0
  4  5  1  0
  4 10  1  0
  5  6  2  0
  5  7  1  0
  6 26  1  0
  7  8  2  0
  7 27  1  0
  8  9  1  0
  8 28  1  0
  9 10  2  0
  9 29  1  0
 10 11  1  0
 11 12  2  0
 11 15  1  0
 12 13  1  0
 12 30  1  0
 13 14  2  0
 13 19  1  0
 14 15  1  0
 14 16  1  0
 16 17  2  0
 16 18  1  0
 18 31  1  0
 18 32  1  0
 19 20  1  0
 19 33  1  0
 20 21  2  0
 20 22  1  0
 22 34  1  0
 22 35  1  0
M  END
>  <template_idx>  (4) 
4m0y_ligand

>  <smiles>  (4) 
NC(=O)Nc1cc(-c2cccc3ccccc23)oc1C(N)=O

>  <qed>  (4) 
0.6901563095054779

$$$$
sample3
     RDKit          3D

 35 36  0  0  0  0  0  0  0  0999 V2000
    3.3827    2.8437   -0.0570 C   0  0  0  0  0  0  0  0  0  0  0  0
    2.5008    2.2645    0.8851 C   0  0  0  0  0  0  0  0  0  0  0  0
    1.3740    1.5699    0.4506 C   0  0  0  0  0  0  0  0  0  0  0  0
    1.1091    1.4520   -0.9078 C   0  0  0  0  0  0  0  0  0  0  0  0
    1.9468    2.1415   -1.8705 C   0  0  0  0  0  0  0  0  0  0  0  0
    3.1055    2.7908   -1.4103 C   0  0  0  0  0  0  0  0  0  0  0  0
    1.6398    2.1277   -3.2321 C   0  0  0  0  0  0  0  0  0  0  0  0
    0.5348    1.4720   -3.6666 C   0  0  0  0  0  0  0  0  0  0  0  0
   -0.2659    0.7463   -2.7827 C   0  0  0  0  0  0  0  0  0  0  0  0
    0.0540    0.7174   -1.4655 C   0  0  0  0  0  0  0  0  0  0  0  0
   -0.6986   -0.1547   -0.6655 C   0  0  0  0  0  0  0  0  0  0  0  0
   -0.2467   -0.7661    0.3998 C   0  0  0  0  0  0  0  0  0  0  0  0
   -1.2890   -1.4504    1.0463 C   0  0  0  0  0  0  0  0  0  0  0  0
   -2.4994   -1.2514    0.5629 N   0  0  0  0  0  0  0  0  0  0  0  0
   -1.7365   -0.2849   -1.0864 H   0  0  0  0  0  0  0  0  0  0  0  0
   -3.6810   -1.7535    0.9297 C   0  0  0  0  0  0  0  0  0  0  0  0
   -3.7957   -2.6069    1.7904 O   0  0  0  0  0  0  0  0  0  0  0  0
   -4.6716   -1.1519    0.1741 N   0  0  0  0  0  0  0  0  0  0  0  0
   -0.9933   -2.2931    2.0477 N   0  0  0  0  0  0  0  0  0  0  0  0
    0.2688   -2.4779    2.5740 C   0  0  0  0  0  0  0  0  0  0  0  0
    1.3287   -1.8987    2.1653 O   0  0  0  0  0  0  0  0  0  0  0  0
    0.2328   -3.3652    3.6045 N   0  0  0  0  0  0  0  0  0  0  0  0
    4.2832    3.3258    0.2807 H   0  0  0  0  0  0  0  0  0  0  0  0
    2.7103    2.3903    1.9396 H   0  0  0  0  0  0  0  0  0  0  0  0
    0.7146    1.2252    1.2443 H   0  0  0  0  0  0  0  0  0  0  0  0
    3.7655    3.2036   -2.1136 H   0  0  0  0  0  0  0  0  0  0  0  0
    2.3064    2.5806   -3.9110 H   0  0  0  0  0  0  0  0  0  0  0  0
    0.3182    1.4585   -4.7505 H   0  0  0  0  0  0  0  0  0  0  0  0
   -1.1153    0.2120   -3.1569 H   0  0  0  0  0  0  0  0  0  0  0  0
    0.7815   -0.8694    0.7650 H   0  0  0  0  0  0  0  0  0  0  0  0
   -5.5175   -1.6124    0.2446 H   0  0  0  0  0  0  0  0  0  0  0  0
   -4.4726   -0.4215   -0.4027 H   0  0  0  0  0  0  0  0  0  0  0  0
   -1.8198   -2.7954    2.4350 H   0  0  0  0  0  0  0  0  0  0  0  0
    1.0640   -3.5198    4.0725 H   0  0  0  0  0  0  0  0  0  0  0  0
   -0.6189   -3.8487    3.8670 H   0  0  0  0  0  0  0  0  0  0  0  0
  1  2  2  0
  1  6  1  0
  1 23  1  0
  2  3  1  0
  2 24  1  0
  3  4  2  0
  3 25  1  0
  4  5  1  0
  4 10  1  0
  5  6  2  0
  5  7  1  0
  6 26  1  0
  7  8  2  0
  7 27  1  0
  8  9  1  0
  8 28  1  0
  9 10  2  0
  9 29  1  0
 10 11  1  0
 11 12  2  3
 11 15  1  0
 12 13  1  0
 12 30  1  0
 13 14  2  3
 13 19  1  0
 14 16  1  0
 16 17  2  0
 16 18  1  0
 18 31  1  0
 18 32  1  0
 19 20  1  0
 19 33  1  0
 20 21  2  0
 20 22  1  0
 22 34  1  0
 22 35  1  0
M  END
>  <template_idx>  (5) 
4m0y_ligand

>  <smiles>  (5) 
NC(=O)N=C(C=Cc1cccc2ccccc12)NC(N)=O

>  <qed>  (5) 
0.5778170695569433

$$$$
sample4
     RDKit          3D

 35 37  0  0  0  0  0  0  0  0999 V2000
    3.3672    2.9513   -0.0750 C   0  0  0  0  0  0  0  0  0  0  0  0
    2.5453    2.3194    0.8926 C   0  0  0  0  0  0  0  0  0  0  0  0
    1.4319    1.6023    0.5138 C   0  0  0  0  0  0  0  0  0  0  0  0
    1.0850    1.4722   -0.8521 C   0  0  0  0  0  0  0  0  0  0  0  0
    1.8667    2.1964   -1.8268 C   0  0  0  0  0  0  0  0  0  0  0  0
    3.0180    2.9007   -1.4257 C   0  0  0  0  0  0  0  0  0  0  0  0
    1.5144    2.1586   -3.1864 C   0  0  0  0  0  0  0  0  0  0  0  0
    0.4089    1.4417   -3.6195 C   0  0  0  0  0  0  0  0  0  0  0  0
   -0.3644    0.7148   -2.7096 C   0  0  0  0  0  0  0  0  0  0  0  0
    0.0201    0.7054   -1.3781 C   0  0  0  0  0  0  0  0  0  0  0  0
   -0.6071   -0.1496   -0.4933 N   0  0  0  0  0  0  0  0  0  0  0  0
    0.0208   -0.8485    0.4328 C   0  0  0  0  0  0  0  0  0  0  0  0
   -1.0185   -1.5629    1.0501 C   0  0  0  0  0  0  0  0  0  0  0  0
   -2.1988   -1.2024    0.3709 C   0  0  0  0  0  0  0  0  0  0  0  0
   -1.9309   -0.3290   -0.5773 N   0  0  0  0  0  0  0  0  0  0  0  0
   -3.5963   -1.6429    0.6406 C   0  0  0  0  0  0  0  0  0  0  0  0
   -3.8178   -2.4655    1.5388 O   0  0  0  0  0  0  0  0  0  0  0  0
   -4.5527   -1.0452   -0.1791 N   0  0  0  0  0  0  0  0  0  0  0  0
   -0.9480   -2.3908    2.0827 N   0  0  0  0  0  0  0  0  0  0  0  0
    0.2181   -2.6310    2.7105 C   0  0  0  0  0  0  0  0  0  0  0  0
    1.3580   -2.1541    2.3985 O   0  0  0  0  0  0  0  0  0  0  0  0
    0.0015   -3.5288    3.7376 N   0  0  0  0  0  0  0  0  0  0  0  0
    4.2860    3.4277    0.2253 H   0  0  0  0  0  0  0  0  0  0  0  0
    2.8221    2.4056    1.9388 H   0  0  0  0  0  0  0  0  0  0  0  0
    0.8302    1.2396    1.3257 H   0  0  0  0  0  0  0  0  0  0  0  0
    3.6480    3.3474   -2.1580 H   0  0  0  0  0  0  0  0  0  0  0  0
    2.1662    2.6550   -3.8945 H   0  0  0  0  0  0  0  0  0  0  0  0
    0.1859    1.4058   -4.6903 H   0  0  0  0  0  0  0  0  0  0  0  0
   -1.2122    0.1483   -3.0463 H   0  0  0  0  0  0  0  0  0  0  0  0
    1.1077   -0.9136    0.6265 H   0  0  0  0  0  0  0  0  0  0  0  0
   -5.4525   -1.3762   -0.0898 H   0  0  0  0  0  0  0  0  0  0  0  0
   -4.2459   -0.3479   -0.8254 H   0  0  0  0  0  0  0  0  0  0  0  0
   -1.8514   -2.7979    2.3502 H   0  0  0  0  0  0  0  0  0  0  0  0
    0.7940   -3.8097    4.2393 H   0  0  0  0  0  0  0  0  0  0  0  0
   -0.8995   -3.8962    3.9523 H   0  0  0  0  0  0  0  0  0  0  0  0
  1  2  2  0
  1  6  1  0
  1 23  1  0
  2  3  1  0
  2 24  1  0
  3  4  2  0
  3 25  1  0
  4  5  1  0
  4 10  1  0
  5  6  2  0
  5  7  1  0
  6 26  1  0
  7  8  2  0
  7 27  1  0
  8  9  1  0
  8 28  1  0
  9 10  2  0
  9 29  1  0
 10 11  1  0
 11 12  1  0
 11 15  1  0
 12 13  2  0
 12 30  1  0
 13 14  1  0
 13 19  1  0
 14 15  2  0
 14 16  1  0
 16 17  2  0
 16 18  1  0
 18 31  1  0
 18 32  1  0
 19 20  1  0
 19 33  1  0
 20 21  2  0
 20 22  1  0
 22 34  1  0
 22 35  1  0
M  END
>  <template_idx>  (6) 
4m0y_ligand

>  <smiles>  (6) 
NC(=O)Nc1cn(-c2cccc3ccccc23)nc1C(N)=O

>  <qed>  (6) 
0.6811731347925961

$$$$
sample5
     RDKit          3D

 35 38  0  0  0  0  0  0  0  0999 V2000
    3.0173    3.1629   -0.1702 C   0  0  0  0  0  0  0  0  0  0  0  0
    2.3635    2.3285    0.7580 C   0  0  0  0  0  0  0  0  0  0  0  0
    1.3544    1.4872    0.3317 C   0  0  0  0  0  0  0  0  0  0  0  0
    0.9820    1.4429   -0.9793 C   0  0  0  0  0  0  0  0  0  0  0  0
    1.6926    2.2592   -1.9154 C   0  0  0  0  0  0  0  0  0  0  0  0
    2.6885    3.1365   -1.5017 C   0  0  0  0  0  0  0  0  0  0  0  0
    1.3771    2.2194   -3.2516 C   0  0  0  0  0  0  0  0  0  0  0  0
    0.3850    1.4062   -3.6667 C   0  0  0  0  0  0  0  0  0  0  0  0
   -0.3445    0.6465   -2.7830 C   0  0  0  0  0  0  0  0  0  0  0  0
   -0.0108    0.6415   -1.4752 C   0  0  0  0  0  0  0  0  0  0  0  0
   -0.7930   -0.1169   -0.6466 C   0  0  0  0  0  0  0  0  0  0  0  0
   -0.3087   -0.8190    0.3951 N   0  0  0  0  0  0  0  0  0  0  0  0
   -1.2296   -1.5307    1.0368 C   0  0  0  0  0  0  0  0  0  0  0  0
   -2.8808   -0.7571   -0.2742 C   0  0  0  0  0  0  0  0  0  0  0  0
   -2.1037   -0.1032   -1.0282 N   0  0  0  0  0  0  0  0  0  0  0  0
   -2.5148   -1.5572    0.7735 N   0  0  0  0  0  0  0  0  0  0  0  0
   -2.7880   -3.1837    2.7472 H   0  0  0  0  0  0  0  0  0  0  0  0
   -4.2391   -0.6775   -0.5699 N   0  0  0  0  0  0  0  0  0  0  0  0
   -0.8329   -2.3108    2.0544 C   0  0  0  0  0  0  0  0  0  0  0  0
    0.5193   -2.3447    2.3855 C   0  0  0  0  0  0  0  0  0  0  0  0
    1.2099   -1.7236    1.8232 H   0  0  0  0  0  0  0  0  0  0  0  0
    0.8957   -3.2180    3.4926 C   0  0  0  0  0  0  0  0  0  0  0  0
    3.7561    3.8531    0.1743 H   0  0  0  0  0  0  0  0  0  0  0  0
    2.6332    2.3718    1.8031 H   0  0  0  0  0  0  0  0  0  0  0  0
    0.8697    0.9079    1.0659 H   0  0  0  0  0  0  0  0  0  0  0  0
    3.1594    3.7417   -2.2074 H   0  0  0  0  0  0  0  0  0  0  0  0
    1.9225    2.7763   -3.9273 H   0  0  0  0  0  0  0  0  0  0  0  0
    0.1384    1.3711   -4.7228 H   0  0  0  0  0  0  0  0  0  0  0  0
   -1.1519    0.0320   -3.1792 H   0  0  0  0  0  0  0  0  0  0  0  0
   -0.9966   -3.8798    3.7337 N   0  0  0  0  0  0  0  0  0  0  0  0
   -4.8187   -1.0573    0.0633 H   0  0  0  0  0  0  0  0  0  0  0  0
   -4.3741   -0.0117   -1.3396 H   0  0  0  0  0  0  0  0  0  0  0  0
   -1.6103   -3.0812    2.8163 C   0  0  0  0  0  0  0  0  0  0  0  0
    0.1952   -3.9722    4.2089 N   0  0  0  0  0  0  0  0  0  0  0  0
    1.8373   -3.4400    3.9746 H   0  0  0  0  0  0  0  0  0  0  0  0
  1  2  2  0
  1  6  1  0
  1 23  1  0
  2  3  1  0
  2 24  1  0
  3  4  2  0
  3 25  1  0
  4  5  1  0
  4 10  1  0
  5  6  2  0
  5  7  1  0
  6 26  1  0
  7  8  2  0
  7 27  1  0
  8  9  1  0
  8 28  1  0
  9 10  2  0
  9 29  1  0
 10 11  1  0
 11 12  2  0
 11 15  1  0
 12 13  1  0
 13 16  2  0
 13 19  1  0
 14 15  2  0
 14 16  1  0
 14 18  1  0
 17 33  1  0
 18 31  1  0
 18 32  1  0
 19 20  2  0
 19 33  1  0
 20 21  1  0
 20 22  1  0
 22 34  2  0
 22 35  1  0
 30 33  2  0
 30 34  1  0
M  END
>  <template_idx>  (7) 
4m0y_ligand

>  <smiles>  (7) 
Nc1nc(-c2ccnnc2)nc(-c2cccc3ccccc23)n1

>  <qed>  (7) 
0.6118331885065047

$$$$
sample6
     RDKit          3D

 35 37  0  0  0  0  0  0  0  0999 V2000
    3.4178    2.9389   -0.0570 C   0  0  0  0  0  0  0  0  0  0  0  0
    2.6560    2.2019    0.8688 C   0  0  0  0  0  0  0  0  0  0  0  0
    1.5313    1.4756    0.4554 C   0  0  0  0  0  0  0  0  0  0  0  0
    1.1809    1.4169   -0.9199 C   0  0  0  0  0  0  0  0  0  0  0  0
    1.9635    2.2216   -1.8670 C   0  0  0  0  0  0  0  0  0  0  0  0
    3.0852    2.9314   -1.4125 C   0  0  0  0  0  0  0  0  0  0  0  0
    1.6222    2.2022   -3.2472 C   0  0  0  0  0  0  0  0  0  0  0  0
    0.5545    1.4738   -3.7060 C   0  0  0  0  0  0  0  0  0  0  0  0
   -0.1697    0.6687   -2.8370 C   0  0  0  0  0  0  0  0  0  0  0  0
    0.0818    0.6679   -1.4530 C   0  0  0  0  0  0  0  0  0  0  0  0
   -0.7194   -0.1348   -0.6393 C   0  0  0  0  0  0  0  0  0  0  0  0
   -0.1947   -0.8567    0.3630 N   0  0  0  0  0  0  0  0  0  0  0  0
   -1.2490   -1.5214    1.0385 C   0  0  0  0  0  0  0  0  0  0  0  0
   -2.4865   -1.2765    0.5152 C   0  0  0  0  0  0  0  0  0  0  0  0
   -2.4101   -0.2339   -0.8956 S   0  0  0  0  0  0  0  0  0  0  0  0
   -3.7546   -1.7666    1.0053 C   0  0  0  0  0  0  0  0  0  0  0  0
   -3.8026   -2.4441    1.9758 O   0  0  0  0  0  0  0  0  0  0  0  0
   -4.8433   -1.3540    0.2259 N   0  0  0  0  0  0  0  0  0  0  0  0
   -0.9726   -2.2343    2.0858 N   0  0  0  0  0  0  0  0  0  0  0  0
    0.3133   -2.4127    2.5194 C   0  0  0  0  0  0  0  0  0  0  0  0
    1.3878   -1.9159    2.0137 O   0  0  0  0  0  0  0  0  0  0  0  0
    0.2852   -3.2391    3.6120 N   0  0  0  0  0  0  0  0  0  0  0  0
    4.2647    3.5185    0.2698 H   0  0  0  0  0  0  0  0  0  0  0  0
    2.9473    2.2219    1.9122 H   0  0  0  0  0  0  0  0  0  0  0  0
    0.9671    1.0167    1.2223 H   0  0  0  0  0  0  0  0  0  0  0  0
    3.6496    3.4706   -2.1265 H   0  0  0  0  0  0  0  0  0  0  0  0
    2.2377    2.7438   -3.9036 H   0  0  0  0  0  0  0  0  0  0  0  0
    0.3301    1.4564   -4.7911 H   0  0  0  0  0  0  0  0  0  0  0  0
   -0.9704    0.1018   -3.2324 H   0  0  0  0  0  0  0  0  0  0  0  0
    0.7885   -1.0304    0.7067 H   0  0  0  0  0  0  0  0  0  0  0  0
   -5.7163   -1.6647    0.5012 H   0  0  0  0  0  0  0  0  0  0  0  0
   -4.7710   -0.7802   -0.5667 H   0  0  0  0  0  0  0  0  0  0  0  0
   -1.7990   -2.6773    2.5558 H   0  0  0  0  0  0  0  0  0  0  0  0
    1.1727   -3.5023    3.9119 H   0  0  0  0  0  0  0  0  0  0  0  0
   -0.5777   -3.6837    3.8959 H   0  0  0  0  0  0  0  0  0  0  0  0
  1  2  2  0
  1  6  1  0
  1 23  1  0
  2  3  1  0
  2 24  1  0
  3  4  2  0
  3 25  1  0
  4  5  1  0
  4 10  1  0
  5  6  2  0
  5  7  1  0
  6 26  1  0
  7  8  2  0
  7 27  1  0
  8  9  1  0
  8 28  1  0
  9 10  2  0
  9 29  1  0
 10 11  1  0
 11 12  1  0
 11 15  2  0
 12 13  1  0
 12 30  1  0
 13 14  2  0
 13 19  1  0
 14 15  1  0
 14 16  1  0
 16 17  2  0
 16 18  1  0
 18 31  1  0
 18 32  1  0
 19 20  1  0
 19 33  1  0
 20 21  2  0
 20 22  1  0
 22 34  1  0
 22 35  1  0
M  CHG  1  15   1
M  END
>  <template_idx>  (8) 
4m0y_ligand

>  <smiles>  (8) 
NC(=O)Nc1[nH]c(-c2cccc3ccccc23)[s+]c1C(N)=O

>  <qed>  (8) 
0.5568779375935118

$$$$
sample7
     RDKit          3D

 35 36  0  0  0  0  0  0  0  0999 V2000
    3.4437    2.7306    0.0164 C   0  0  0  0  0  0  0  0  0  0  0  0
    4.4451    2.3247   -0.1477 H   0  0  0  0  0  0  0  0  0  0  0  0
    0.9537    1.8089    0.4540 O   0  0  0  0  0  0  0  0  0  0  0  0
    0.8594    1.5742   -0.8727 C   0  0  0  0  0  0  0  0  0  0  0  0
    1.6388    2.2787   -1.7551 C   0  0  0  0  0  0  0  0  0  0  0  0
    2.8328    3.0198   -1.3164 C   0  0  0  0  0  0  0  0  0  0  0  0
    1.3304    2.2515   -3.1360 C   0  0  0  0  0  0  0  0  0  0  0  0
    0.3095    1.4156   -3.6184 C   0  0  0  0  0  0  0  0  0  0  0  0
   -0.3951    0.5846   -2.7457 C   0  0  0  0  0  0  0  0  0  0  0  0
   -0.0558    0.6939   -1.4121 C   0  0  0  0  0  0  0  0  0  0  0  0
   -0.6296   -0.1895   -0.5064 C   0  0  0  0  0  0  0  0  0  0  0  0
    0.0423   -0.8898    0.5170 C   0  0  0  0  0  0  0  0  0  0  0  0
   -1.0575   -1.6427    1.1500 C   0  0  0  0  0  0  0  0  0  0  0  0
   -2.2220   -1.2505    0.4937 C   0  0  0  0  0  0  0  0  0  0  0  0
   -1.9696   -0.3831   -0.5441 N   0  0  0  0  0  0  0  0  0  0  0  0
   -3.5646   -1.6093    0.7874 C   0  0  0  0  0  0  0  0  0  0  0  0
   -3.8426   -2.3558    1.6889 O   0  0  0  0  0  0  0  0  0  0  0  0
   -4.4797   -0.9548   -0.0318 N   0  0  0  0  0  0  0  0  0  0  0  0
   -0.9975   -2.4210    2.1639 N   0  0  0  0  0  0  0  0  0  0  0  0
    0.1870   -2.7647    2.7396 C   0  0  0  0  0  0  0  0  0  0  0  0
    1.3121   -2.3613    2.3616 O   0  0  0  0  0  0  0  0  0  0  0  0
    0.0037   -3.6070    3.7885 N   0  0  0  0  0  0  0  0  0  0  0  0
    3.7087    3.6110    0.6194 H   0  0  0  0  0  0  0  0  0  0  0  0
    2.7832    1.9992    0.6662 H   0  0  0  0  0  0  0  0  0  0  0  0
    0.9868    1.2059    1.1685 H   0  0  0  0  0  0  0  0  0  0  0  0
    3.3805    3.8098   -2.0530 O   0  0  0  0  0  0  0  0  0  0  0  0
    1.8991    2.9205   -3.7603 H   0  0  0  0  0  0  0  0  0  0  0  0
    0.0728    1.4094   -4.6953 H   0  0  0  0  0  0  0  0  0  0  0  0
   -1.1575   -0.1296   -3.1412 H   0  0  0  0  0  0  0  0  0  0  0  0
    1.6841   -0.8896    0.8761 S   0  0  0  0  0  0  0  0  0  0  0  0
   -5.3808   -1.2319    0.1002 H   0  0  0  0  0  0  0  0  0  0  0  0
   -4.1206   -0.3158   -0.6933 H   0  0  0  0  0  0  0  0  0  0  0  0
   -1.8752   -2.8330    2.4782 H   0  0  0  0  0  0  0  0  0  0  0  0
    0.8033   -3.9504    4.2625 H   0  0  0  0  0  0  0  0  0  0  0  0
   -0.9288   -3.8588    4.0973 H   0  0  0  0  0  0  0  0  0  0  0  0
  1  2  1  0
  1  6  1  0
  1 23  1  0
  1 24  1  0
  3  4  1  0
  3 25  1  0
  4  5  2  0
  4 10  1  0
  5  6  1  0
  5  7  1  0
  6 26  2  0
  7  8  2  0
  7 27  1  0
  8  9  1  0
  8 28  1  0
  9 10  2  0
  9 29  1  0
 10 11  1  0
 11 12  1  0
 11 15  2  0
 12 13  1  0
 12 30  2  0
 13 14  2  0
 13 19  1  0
 14 15  1  0
 14 16  1  0
 16 17  2  0
 16 18  1  0
 18 31  1  0
 18 32  1  0
 19 20  1  0
 19 33  1  0
 20 21  2  0
 20 22  1  0
 22 34  1  0
 22 35  1  0
M  END
>  <template_idx>  (9) 
4m0y_ligand

>  <smiles>  (9) 
CC(=O)c1cccc(C2=NC(C(N)=O)=C(NC(N)=O)C2=S)c1O

>  <qed>  (9) 
0.4567857367974833

$$$$
sample8
     RDKit          3D

 35 37  0  0  0  0  0  0  0  0999 V2000
    3.3300    2.9719   -0.1753 C   0  0  0  0  0  0  0  0  0  0  0  0
    2.5185    2.3599    0.8094 C   0  0  0  0  0  0  0  0  0  0  0  0
    1.3939    1.6382    0.4294 C   0  0  0  0  0  0  0  0  0  0  0  0
    1.0934    1.4470   -0.9426 C   0  0  0  0  0  0  0  0  0  0  0  0
    1.8867    2.1058   -1.9570 C   0  0  0  0  0  0  0  0  0  0  0  0
    3.0186    2.8594   -1.5401 C   0  0  0  0  0  0  0  0  0  0  0  0
    1.5271    2.0054   -3.3073 C   0  0  0  0  0  0  0  0  0  0  0  0
    0.4285    1.2580   -3.6948 C   0  0  0  0  0  0  0  0  0  0  0  0
   -0.3294    0.5525   -2.7523 C   0  0  0  0  0  0  0  0  0  0  0  0
    0.0271    0.6148   -1.4029 C   0  0  0  0  0  0  0  0  0  0  0  0
   -0.6578   -0.1933   -0.4779 C   0  0  0  0  0  0  0  0  0  0  0  0
   -0.0158   -0.8505    0.5893 N   0  0  0  0  0  0  0  0  0  0  0  0
   -1.1021   -1.5500    1.1702 C   0  0  0  0  0  0  0  0  0  0  0  0
   -2.2489   -1.2424    0.4619 C   0  0  0  0  0  0  0  0  0  0  0  0
   -1.9484   -0.3785   -0.5929 N   0  0  0  0  0  0  0  0  0  0  0  0
   -3.6084   -1.6719    0.7190 C   0  0  0  0  0  0  0  0  0  0  0  0
   -3.8432   -2.4327    1.6121 O   0  0  0  0  0  0  0  0  0  0  0  0
   -4.5071   -1.0883   -0.1753 N   0  0  0  0  0  0  0  0  0  0  0  0
   -0.9370   -2.3182    2.1646 N   0  0  0  0  0  0  0  0  0  0  0  0
    0.2850   -2.4912    2.7550 C   0  0  0  0  0  0  0  0  0  0  0  0
    1.3887   -1.8918    2.4047 O   0  0  0  0  0  0  0  0  0  0  0  0
    0.1738   -3.3496    3.8198 N   0  0  0  0  0  0  0  0  0  0  0  0
    4.1363    3.6102    0.1233 H   0  0  0  0  0  0  0  0  0  0  0  0
    2.7622    2.4943    1.8749 H   0  0  0  0  0  0  0  0  0  0  0  0
    0.7675    1.2932    1.2169 H   0  0  0  0  0  0  0  0  0  0  0  0
    3.6099    3.3591   -2.2752 H   0  0  0  0  0  0  0  0  0  0  0  0
    2.0541    2.6044   -4.0163 H   0  0  0  0  0  0  0  0  0  0  0  0
    0.1582    1.2376   -4.7586 H   0  0  0  0  0  0  0  0  0  0  0  0
   -1.1691   -0.0590   -3.1009 H   0  0  0  0  0  0  0  0  0  0  0  0
    0.9215   -0.9551    1.0478 H   0  0  0  0  0  0  0  0  0  0  0  0
   -5.4567   -1.3199   -0.0502 H   0  0  0  0  0  0  0  0  0  0  0  0
   -4.1091   -0.4786   -0.8249 H   0  0  0  0  0  0  0  0  0  0  0  0
   -1.8120   -2.7969    2.4787 H   0  0  0  0  0  0  0  0  0  0  0  0
    0.9898   -3.5790    4.3113 H   0  0  0  0  0  0  0  0  0  0  0  0
   -0.7258   -3.7648    4.0563 H   0  0  0  0  0  0  0  0  0  0  0  0
  1  2  2  0
  1  6  1  0
  1 23  1  0
  2  3  1  0
  2 24  1  0
  3  4  2  0
  3 25  1  0
  4  5  1  0
  4 10  1  0
  5  6  2  0
  5  7  1  0
  6 26  1  0
  7  8  2  0
  7 27  1  0
  8  9  1  0
  8 28  1  0
  9 10  2  0
  9 29  1  0
 10 11  1  0
 11 12  1  0
 11 15  2  0
 12 13  1  0
 12 30  1  0
 13 14  2  0
 13 19  1  0
 14 15  1  0
 14 16  1  0
 16 17  2  0
 16 18  1  0
 18 31  1  0
 18 32  1  0
 19 20  1  0
 19 33  1  0
 20 21  2  0
 20 22  1  0
 22 34  1  0
 22 35  1  0
M  END
>  <template_idx>  (10) 
4m0y_ligand

>  <smiles>  (10) 
NC(=O)Nc1[nH]c(-c2cccc3ccccc23)nc1C(N)=O

>  <qed>  (10) 
0.5880970589487512

$$$$
sample9
     RDKit          3D

 35 37  0  0  0  0  0  0  0  0999 V2000
    3.6099    2.0154    1.6242 H   0  0  0  0  0  0  0  0  0  0  0  0
    3.4064    2.8835    0.9381 C   0  0  0  0  0  0  0  0  0  0  0  0
    2.5643    2.3699   -0.1698 C   0  0  0  0  0  0  0  0  0  0  0  0
    1.0378    1.3438   -1.1503 C   0  0  0  0  0  0  0  0  0  0  0  0
    1.6501    2.0420   -2.1627 N   0  0  0  0  0  0  0  0  0  0  0  0
    2.6980    2.7076   -1.5653 C   0  0  0  0  0  0  0  0  0  0  0  0
    1.2631    2.0158   -3.4575 C   0  0  0  0  0  0  0  0  0  0  0  0
    0.1351    1.2806   -3.7828 C   0  0  0  0  0  0  0  0  0  0  0  0
   -0.5997    0.5769   -2.8001 C   0  0  0  0  0  0  0  0  0  0  0  0
   -0.1179    0.5706   -1.5193 C   0  0  0  0  0  0  0  0  0  0  0  0
   -0.6874   -0.2281   -0.5279 C   0  0  0  0  0  0  0  0  0  0  0  0
   -0.0384   -0.8506    0.4651 C   0  0  0  0  0  0  0  0  0  0  0  0
   -1.0591   -1.5668    1.1582 C   0  0  0  0  0  0  0  0  0  0  0  0
   -2.2550   -1.2057    0.5505 C   0  0  0  0  0  0  0  0  0  0  0  0
   -2.0316   -0.4131   -0.4956 O   0  0  0  0  0  0  0  0  0  0  0  0
   -3.6313   -1.5296    0.9033 C   0  0  0  0  0  0  0  0  0  0  0  0
   -3.8686   -2.3002    1.8441 O   0  0  0  0  0  0  0  0  0  0  0  0
   -4.5413   -0.8527    0.1097 N   0  0  0  0  0  0  0  0  0  0  0  0
   -0.9582   -2.4219    2.1683 N   0  0  0  0  0  0  0  0  0  0  0  0
    0.2298   -2.8513    2.7005 C   0  0  0  0  0  0  0  0  0  0  0  0
    1.3928   -2.5052    2.2879 O   0  0  0  0  0  0  0  0  0  0  0  0
    0.0217   -3.6932    3.7562 N   0  0  0  0  0  0  0  0  0  0  0  0
    4.3799    3.4191    0.5031 H   0  0  0  0  0  0  0  0  0  0  0  0
    2.9043    3.5469    1.6086 H   0  0  0  0  0  0  0  0  0  0  0  0
    1.5833    1.5244    0.0309 N   0  0  0  0  0  0  0  0  0  0  0  0
    3.3828    3.2662   -2.0306 H   0  0  0  0  0  0  0  0  0  0  0  0
    1.8751    2.4831   -4.1996 H   0  0  0  0  0  0  0  0  0  0  0  0
   -0.2023    1.2407   -4.8460 H   0  0  0  0  0  0  0  0  0  0  0  0
   -1.5011    0.0083   -3.0710 H   0  0  0  0  0  0  0  0  0  0  0  0
    1.0226   -0.8467    0.7038 H   0  0  0  0  0  0  0  0  0  0  0  0
   -5.4524   -0.9984    0.3586 H   0  0  0  0  0  0  0  0  0  0  0  0
   -4.2030   -0.2321   -0.5868 H   0  0  0  0  0  0  0  0  0  0  0  0
   -1.8550   -2.7543    2.5071 H   0  0  0  0  0  0  0  0  0  0  0  0
    0.7878   -4.0183    4.2333 H   0  0  0  0  0  0  0  0  0  0  0  0
   -0.9421   -4.0265    3.9138 H   0  0  0  0  0  0  0  0  0  0  0  0
  1  2  1  0
  2  3  1  0
  2 23  1  0
  2 24  1  0
  3  6  2  0
  3 25  1  0
  4  5  1  0
  4 10  1  0
  4 25  2  0
  5  6  1  0
  5  7  1  0
  6 26  1  0
  7  8  2  0
  7 27  1  0
  8  9  1  0
  8 28  1  0
  9 10  2  0
  9 29  1  0
 10 11  1  0
 11 12  2  0
 11 15  1  0
 12 13  1  0
 12 30  1  0
 13 14  2  0
 13 19  1  0
 14 15  1  0
 14 16  1  0
 16 17  2  0
 16 18  1  0
 18 31  1  0
 18 32  1  0
 19 20  1  0
 19 33  1  0
 20 21  2  0
 20 22  1  0
 22 34  1  0
 22 35  1  0
M  END
>  <template_idx>  (11) 
4m0y_ligand

>  <smiles>  (11) 
Cc1cn2cccc(-c3cc(NC(N)=O)c(C(N)=O)o3)c2n1

>  <qed>  (11) 
0.6761921858413826

$$$$
sample10
     RDKit          3D

 35 37  0  0  0  0  0  0  0  0999 V2000
    3.2674    3.0067   -0.1781 C   0  0  0  0  0  0  0  0  0  0  0  0
    2.5060    2.3142    0.7974 C   0  0  0  0  0  0  0  0  0  0  0  0
    1.3837    1.5902    0.4477 C   0  0  0  0  0  0  0  0  0  0  0  0
    0.9858    1.4680   -0.9071 C   0  0  0  0  0  0  0  0  0  0  0  0
    1.7381    2.1922   -1.9043 C   0  0  0  0  0  0  0  0  0  0  0  0
    2.8805    2.9339   -1.5121 C   0  0  0  0  0  0  0  0  0  0  0  0
    1.3437    2.1379   -3.2205 C   0  0  0  0  0  0  0  0  0  0  0  0
    0.2586    1.4094   -3.6481 C   0  0  0  0  0  0  0  0  0  0  0  0
   -0.4965    0.6844   -2.7352 C   0  0  0  0  0  0  0  0  0  0  0  0
   -0.1028    0.6869   -1.4321 C   0  0  0  0  0  0  0  0  0  0  0  0
   -0.7407   -0.1523   -0.5656 N   0  0  0  0  0  0  0  0  0  0  0  0
   -0.0432   -1.0218    0.2671 C   0  0  0  0  0  0  0  0  0  0  0  0
   -1.1673   -1.6192    1.0582 C   0  0  0  0  0  0  0  0  0  0  0  0
   -2.3450   -1.1658    0.4868 C   0  0  0  0  0  0  0  0  0  0  0  0
   -2.0813   -0.2592   -0.4821 N   0  0  0  0  0  0  0  0  0  0  0  0
   -3.7825   -1.5989    0.7224 C   0  0  0  0  0  0  0  0  0  0  0  0
   -3.8919   -2.1940    1.7191 H   0  0  0  0  0  0  0  0  0  0  0  0
   -4.1125   -2.1382   -0.1121 H   0  0  0  0  0  0  0  0  0  0  0  0
   -1.0160   -2.4059    2.1056 N   0  0  0  0  0  0  0  0  0  0  0  0
    0.1025   -2.5153    2.8714 C   0  0  0  0  0  0  0  0  0  0  0  0
    1.1337   -1.8029    2.8079 O   0  0  0  0  0  0  0  0  0  0  0  0
    0.0115   -3.5262    3.7881 N   0  0  0  0  0  0  0  0  0  0  0  0
    4.1462    3.5608    0.1035 H   0  0  0  0  0  0  0  0  0  0  0  0
    2.8165    2.3737    1.8399 H   0  0  0  0  0  0  0  0  0  0  0  0
    0.8327    1.1352    1.2630 H   0  0  0  0  0  0  0  0  0  0  0  0
    3.4485    3.4317   -2.2665 H   0  0  0  0  0  0  0  0  0  0  0  0
    1.9337    2.6728   -3.9302 H   0  0  0  0  0  0  0  0  0  0  0  0
   -0.0111    1.3787   -4.7094 H   0  0  0  0  0  0  0  0  0  0  0  0
   -1.3521    0.0970   -3.0801 H   0  0  0  0  0  0  0  0  0  0  0  0
    1.2616   -1.3477    0.2104 O   0  0  0  0  0  0  0  0  0  0  0  0
   -4.4912   -0.8234    0.6501 H   0  0  0  0  0  0  0  0  0  0  0  0
   -2.6229    0.3231   -1.0173 H   0  0  0  0  0  0  0  0  0  0  0  0
   -1.8238   -2.9447    2.3963 H   0  0  0  0  0  0  0  0  0  0  0  0
    0.8438   -3.7919    4.2740 H   0  0  0  0  0  0  0  0  0  0  0  0
   -0.8139   -4.0895    3.8919 H   0  0  0  0  0  0  0  0  0  0  0  0
  1  2  2  0
  1  6  1  0
  1 23  1  0
  2  3  1  0
  2 24  1  0
  3  4  2  0
  3 25  1  0
  4  5  1  0
  4 10  1  0
  5  6  2  0
  5  7  1  0
  6 26  1  0
  7  8  2  0
  7 27  1  0
  8  9  1  0
  8 28  1  0
  9 10  2  0
  9 29  1  0
 10 11  1  0
 11 12  1  0
 11 15  1  0
 12 13  1  0
 12 30  2  0
 13 14  2  0
 13 19  1  0
 14 15  1  0
 14 16  1  0
 15 32  1  0
 16 17  1  0
 16 18  1  0
 16 31  1  0
 19 20  1  0
 19 33  1  0
 20 21  2  0
 20 22  1  0
 22 34  1  0
 22 35  1  0
M  END
>  <template_idx>  (12) 
4m0y_ligand

>  <smiles>  (12) 
Cc1[nH]n(-c2cccc3ccccc23)c(=O)c1NC(N)=O

>  <qed>  (12) 
0.6712722071793705

$$$$
sample11
     RDKit          3D

 35 36  0  0  0  0  0  0  0  0999 V2000
    3.2947    2.8305   -0.0368 C   0  0  0  0  0  0  0  0  0  0  0  0
    2.4569    2.2386    0.9188 C   0  0  0  0  0  0  0  0  0  0  0  0
    1.3494    1.5242    0.5024 C   0  0  0  0  0  0  0  0  0  0  0  0
    1.0380    1.3716   -0.8503 C   0  0  0  0  0  0  0  0  0  0  0  0
    1.8629    2.0746   -1.8185 C   0  0  0  0  0  0  0  0  0  0  0  0
    2.9884    2.7732   -1.3888 C   0  0  0  0  0  0  0  0  0  0  0  0
    1.5282    2.0431   -3.1732 C   0  0  0  0  0  0  0  0  0  0  0  0
    0.4498    1.3585   -3.5858 C   0  0  0  0  0  0  0  0  0  0  0  0
   -0.3317    0.6398   -2.6781 C   0  0  0  0  0  0  0  0  0  0  0  0
    0.0196    0.5917   -1.3611 C   0  0  0  0  0  0  0  0  0  0  0  0
   -0.6725   -0.2502   -0.5585 N   0  0  0  0  0  0  0  0  0  0  0  0
   -0.1345   -0.9816    0.4293 C   0  0  0  0  0  0  0  0  0  0  0  0
   -1.2172   -1.5562    1.1757 C   0  0  0  0  0  0  0  0  0  0  0  0
   -2.4895   -1.4064    0.8499 N   0  0  0  0  0  0  0  0  0  0  0  0
   -1.6629   -0.2724   -0.8271 H   0  0  0  0  0  0  0  0  0  0  0  0
   -3.1658   -0.7727    0.0388 O   0  0  0  0  0  0  0  0  0  0  0  0
   -4.9846   -0.7874    0.8785 H   0  0  0  0  0  0  0  0  0  0  0  0
   -4.5084   -1.0638   -0.0511 C   0  0  0  0  0  0  0  0  0  0  0  0
   -0.9286   -2.2967    2.3031 C   0  0  0  0  0  0  0  0  0  0  0  0
    0.2616   -2.6062    2.7025 C   0  0  0  0  0  0  0  0  0  0  0  0
    1.1990   -2.2722    2.1192 H   0  0  0  0  0  0  0  0  0  0  0  0
    0.4798   -3.3258    3.8236 N   0  0  0  0  0  0  0  0  0  0  0  0
    4.1843    3.3385    0.2900 H   0  0  0  0  0  0  0  0  0  0  0  0
    2.6917    2.3372    1.9744 H   0  0  0  0  0  0  0  0  0  0  0  0
    0.7206    1.1372    1.2774 H   0  0  0  0  0  0  0  0  0  0  0  0
    3.6278    3.2175   -2.1150 H   0  0  0  0  0  0  0  0  0  0  0  0
    2.1344    2.5731   -3.8653 H   0  0  0  0  0  0  0  0  0  0  0  0
    0.1807    1.3491   -4.6512 H   0  0  0  0  0  0  0  0  0  0  0  0
   -1.1767    0.1009   -3.0805 H   0  0  0  0  0  0  0  0  0  0  0  0
    1.1298   -1.1986    0.6302 O   0  0  0  0  0  0  0  0  0  0  0  0
   -4.6149   -2.0855   -0.0706 H   0  0  0  0  0  0  0  0  0  0  0  0
   -5.0287   -0.6234   -0.9958 H   0  0  0  0  0  0  0  0  0  0  0  0
   -1.8214   -2.6526    2.8120 H   0  0  0  0  0  0  0  0  0  0  0  0
    1.3951   -3.6114    4.0353 H   0  0  0  0  0  0  0  0  0  0  0  0
   -0.2555   -3.7364    4.3467 H   0  0  0  0  0  0  0  0  0  0  0  0
  1  2  2  0
  1  6  1  0
  1 23  1  0
  2  3  1  0
  2 24  1  0
  3  4  2  0
  3 25  1  0
  4  5  1  0
  4 10  1  0
  5  6  2  0
  5  7  1  0
  6 26  1  0
  7  8  2  0
  7 27  1  0
  8  9  1  0
  8 28  1  0
  9 10  2  0
  9 29  1  0
 10 11  1  0
 11 12  1  0
 11 15  1  0
 12 13  1  0
 12 30  2  0
 13 14  2  3
 13 19  1  0
 14 16  1  0
 16 18  1  0
 17 18  1  0
 18 31  1  0
 18 32  1  0
 19 20  2  3
 19 33  1  0
 20 21  1  0
 20 22  1  0
 22 34  1  0
 22 35  1  0
M  END
>  <template_idx>  (13) 
4m0y_ligand

>  <smiles>  (13) 
CON=C(C=CN)C(=O)Nc1cccc2ccccc12

>  <qed>  (13) 
0.6598714926917028

$$$$
sample12
     RDKit          3D

 35 37  0  0  0  0  0  0  0  0999 V2000
    3.3983    2.9079   -0.1192 C   0  0  0  0  0  0  0  0  0  0  0  0
    2.4663    2.4719    0.8341 C   0  0  0  0  0  0  0  0  0  0  0  0
    1.2704    1.8906    0.4077 C   0  0  0  0  0  0  0  0  0  0  0  0
    1.0480    1.6284   -0.9755 C   0  0  0  0  0  0  0  0  0  0  0  0
    1.9489    2.1356   -1.8954 C   0  0  0  0  0  0  0  0  0  0  0  0
    3.1395    2.7641   -1.4850 C   0  0  0  0  0  0  0  0  0  0  0  0
    1.6349    1.9974   -3.3424 C   0  0  0  0  0  0  0  0  0  0  0  0
    0.4289    1.3772   -3.6463 N   0  0  0  0  0  0  0  0  0  0  0  0
   -0.4627    0.7792   -2.7942 C   0  0  0  0  0  0  0  0  0  0  0  0
    0.0075    0.8501   -1.5032 N   0  0  0  0  0  0  0  0  0  0  0  0
   -0.5888   -0.0210   -0.6115 C   0  0  0  0  0  0  0  0  0  0  0  0
    1.0419   -0.8086    0.5530 H   0  0  0  0  0  0  0  0  0  0  0  0
   -1.0017   -1.5285    1.0544 C   0  0  0  0  0  0  0  0  0  0  0  0
   -2.2967   -1.2987    0.5739 C   0  0  0  0  0  0  0  0  0  0  0  0
   -2.3011   -0.2082   -0.7562 S   0  0  0  0  0  0  0  0  0  0  0  0
   -3.5887   -1.8309    0.9827 C   0  0  0  0  0  0  0  0  0  0  0  0
   -3.6711   -2.5386    1.9532 O   0  0  0  0  0  0  0  0  0  0  0  0
   -4.6945   -1.4020    0.1820 N   0  0  0  0  0  0  0  0  0  0  0  0
   -0.8121   -2.2912    2.0932 N   0  0  0  0  0  0  0  0  0  0  0  0
    0.4199   -2.5793    2.6383 C   0  0  0  0  0  0  0  0  0  0  0  0
    1.5557   -2.1282    2.2108 O   0  0  0  0  0  0  0  0  0  0  0  0
    0.2691   -3.3796    3.7146 N   0  0  0  0  0  0  0  0  0  0  0  0
    4.2859    3.4240    0.2085 H   0  0  0  0  0  0  0  0  0  0  0  0
    2.6228    2.6008    1.8778 H   0  0  0  0  0  0  0  0  0  0  0  0
    0.5235    1.6831    1.1786 H   0  0  0  0  0  0  0  0  0  0  0  0
    3.8006    3.1348   -2.2393 H   0  0  0  0  0  0  0  0  0  0  0  0
    2.3487    2.3738   -4.2154 O   0  0  0  0  0  0  0  0  0  0  0  0
    0.2324    1.3094   -4.6305 H   0  0  0  0  0  0  0  0  0  0  0  0
   -1.5099    0.2147   -3.1612 O   0  0  0  0  0  0  0  0  0  0  0  0
   -0.0327   -0.7608    0.3272 C   0  0  0  0  0  0  0  0  0  0  0  0
   -5.5217   -1.5377    0.5648 H   0  0  0  0  0  0  0  0  0  0  0  0
   -4.6257   -1.0485   -0.7265 H   0  0  0  0  0  0  0  0  0  0  0  0
   -1.6890   -2.7330    2.4799 H   0  0  0  0  0  0  0  0  0  0  0  0
   -0.6740   -3.6662    4.0332 H   0  0  0  0  0  0  0  0  0  0  0  0
    1.0277   -3.7824    4.2342 H   0  0  0  0  0  0  0  0  0  0  0  0
  1  2  2  0
  1  6  1  0
  1 23  1  0
  2  3  1  0
  2 24  1  0
  3  4  2  0
  3 25  1  0
  4  5  1  0
  4 10  1  0
  5  6  2  0
  5  7  1  0
  6 26  1  0
  7  8  1  0
  7 27  2  0
  8  9  1  0
  8 28  1  0
  9 10  1  0
  9 29  2  0
 10 11  1  0
 11 15  1  0
 11 30  2  0
 12 30  1  0
 13 14  2  0
 13 19  1  0
 13 30  1  0
 14 15  1  0
 14 16  1  0
 16 17  2  0
 16 18  1  0
 18 31  1  0
 18 32  1  0
 19 20  1  0
 19 33  1  0
 20 21  2  0
 20 22  1  0
 22 34  1  0
 22 35  1  0
M  END
>  <template_idx>  (14) 
4m0y_ligand

>  <smiles>  (14) 
NC(=O)Nc1cc(-n2c(=O)[nH]c(=O)c3ccccc32)sc1C(N)=O

>  <qed>  (14) 
0.5399417272360209

$$$$
sample13
     RDKit          3D

 35 38  0  0  0  0  0  0  0  0999 V2000
    3.3558    2.9500   -0.1780 C   0  0  0  0  0  0  0  0  0  0  0  0
    2.5948    2.2740    0.7975 C   0  0  0  0  0  0  0  0  0  0  0  0
    1.4894    1.5701    0.3994 C   0  0  0  0  0  0  0  0  0  0  0  0
    1.1339    1.4386   -0.9534 C   0  0  0  0  0  0  0  0  0  0  0  0
    1.8758    2.2212   -1.9003 C   0  0  0  0  0  0  0  0  0  0  0  0
    2.9995    2.9177   -1.5090 C   0  0  0  0  0  0  0  0  0  0  0  0
    1.4533    2.2354   -3.2297 C   0  0  0  0  0  0  0  0  0  0  0  0
    0.4130    1.4549   -3.6445 C   0  0  0  0  0  0  0  0  0  0  0  0
   -0.2521    0.6327   -2.7452 C   0  0  0  0  0  0  0  0  0  0  0  0
    0.1256    0.6527   -1.4396 C   0  0  0  0  0  0  0  0  0  0  0  0
   -0.5535   -0.1899   -0.4959 C   0  0  0  0  0  0  0  0  0  0  0  0
   -0.0634   -1.0720    0.5121 C   0  0  0  0  0  0  0  0  0  0  0  0
   -1.1647   -1.6587    1.1321 C   0  0  0  0  0  0  0  0  0  0  0  0
   -2.3320   -1.1947    0.4929 N   0  0  0  0  0  0  0  0  0  0  0  0
   -1.9039   -0.3065   -0.5126 C   0  0  0  0  0  0  0  0  0  0  0  0
   -3.6510   -1.3156    0.5134 C   0  0  0  0  0  0  0  0  0  0  0  0
   -4.1126   -1.9715    1.2188 H   0  0  0  0  0  0  0  0  0  0  0  0
   -4.2450   -0.5715   -0.4240 C   0  0  0  0  0  0  0  0  0  0  0  0
   -1.1519   -2.5409    2.1847 C   0  0  0  0  0  0  0  0  0  0  0  0
   -0.0735   -3.2633    4.8487 H   0  0  0  0  0  0  0  0  0  0  0  0
   -0.1142   -2.5892    2.9621 N   0  0  0  0  0  0  0  0  0  0  0  0
    0.1573   -3.5382    3.8841 C   0  0  0  0  0  0  0  0  0  0  0  0
    4.2437    3.4496    0.1078 H   0  0  0  0  0  0  0  0  0  0  0  0
    2.8905    2.2809    1.8252 H   0  0  0  0  0  0  0  0  0  0  0  0
    0.8851    1.1281    1.1610 H   0  0  0  0  0  0  0  0  0  0  0  0
    3.5462    3.4166   -2.2276 H   0  0  0  0  0  0  0  0  0  0  0  0
    2.0154    2.7877   -3.8996 H   0  0  0  0  0  0  0  0  0  0  0  0
    0.1127    1.4497   -4.6530 H   0  0  0  0  0  0  0  0  0  0  0  0
   -1.0446    0.0159   -3.1147 H   0  0  0  0  0  0  0  0  0  0  0  0
    0.9845   -1.3139    0.7705 H   0  0  0  0  0  0  0  0  0  0  0  0
   -5.3013   -0.4805   -0.5037 H   0  0  0  0  0  0  0  0  0  0  0  0
   -3.1810    0.3438   -1.4235 S   0  0  0  0  0  0  0  0  0  0  0  0
   -2.0846   -3.1018    2.3448 H   0  0  0  0  0  0  0  0  0  0  0  0
    1.3367   -3.5664    3.9224 H   0  0  0  0  0  0  0  0  0  0  0  0
   -0.3836   -4.5449    3.7768 H   0  0  0  0  0  0  0  0  0  0  0  0
  1  2  2  0
  1  6  1  0
  1 23  1  0
  2  3  1  0
  2 24  1  0
  3  4  2  0
  3 25  1  0
  4  5  1  0
  4 10  1  0
  5  6  2  0
  5  7  1  0
  6 26  1  0
  7  8  2  0
  7 27  1  0
  8  9  1  0
  8 28  1  0
  9 10  2  0
  9 29  1  0
 10 11  1  0
 11 12  1  0
 11 15  2  0
 12 13  2  0
 12 30  1  0
 13 14  1  0
 13 19  1  0
 14 15  1  0
 14 16  1  0
 15 32  1  0
 16 17  1  0
 16 18  2  0
 18 31  1  0
 18 32  1  0
 19 21  2  3
 19 33  1  0
 20 22  1  0
 21 22  1  0
 22 34  1  0
 22 35  1  0
M  END
>  <template_idx>  (15) 
4m0y_ligand

>  <smiles>  (15) 
CN=Cc1cc(-c2cccc3ccccc23)c2sccn12

>  <qed>  (15) 
0.4684724203018489

$$$$
sample14
     RDKit          3D

 35 37  0  0  0  0  0  0  0  0999 V2000
    3.2672    2.9253    0.0266 C   0  0  0  0  0  0  0  0  0  0  0  0
    2.3243    2.2674    0.8902 C   0  0  0  0  0  0  0  0  0  0  0  0
    1.2292    1.6238    0.3633 C   0  0  0  0  0  0  0  0  0  0  0  0
    1.0514    1.5257   -1.0074 C   0  0  0  0  0  0  0  0  0  0  0  0
    1.9923    2.2076   -1.8883 C   0  0  0  0  0  0  0  0  0  0  0  0
    3.0936    2.8776   -1.3378 C   0  0  0  0  0  0  0  0  0  0  0  0
    1.8263    2.1420   -3.2842 C   0  0  0  0  0  0  0  0  0  0  0  0
    0.7757    1.4734   -3.8341 C   0  0  0  0  0  0  0  0  0  0  0  0
   -0.1182    0.8217   -3.0085 C   0  0  0  0  0  0  0  0  0  0  0  0
    0.0133    0.8661   -1.6497 C   0  0  0  0  0  0  0  0  0  0  0  0
   -0.9516    0.2552   -1.0687 O   0  0  0  0  0  0  0  0  0  0  0  0
   -0.1588   -1.0163    0.8478 C   0  0  0  0  0  0  0  0  0  0  0  0
   -1.0593   -0.4723   -0.0739 C   0  0  0  0  0  0  0  0  0  0  0  0
   -2.3439   -0.7796   -0.0775 N   0  0  0  0  0  0  0  0  0  0  0  0
   -2.8232   -1.4857    0.6714 N   0  0  0  0  0  0  0  0  0  0  0  0
   -2.0479   -2.1979    1.7186 C   0  0  0  0  0  0  0  0  0  0  0  0
   -2.6479   -2.9622    2.4811 O   0  0  0  0  0  0  0  0  0  0  0  0
   -4.2288   -1.5447    0.4306 C   0  0  0  0  0  0  0  0  0  0  0  0
   -0.6399   -1.8986    1.7572 C   0  0  0  0  0  0  0  0  0  0  0  0
    0.3163   -2.4907    2.7490 C   0  0  0  0  0  0  0  0  0  0  0  0
    1.5274   -2.1286    2.7444 O   0  0  0  0  0  0  0  0  0  0  0  0
   -0.1294   -3.4015    3.5968 N   0  0  0  0  0  0  0  0  0  0  0  0
    4.1258    3.4452    0.4147 H   0  0  0  0  0  0  0  0  0  0  0  0
    2.4990    2.2605    1.9548 H   0  0  0  0  0  0  0  0  0  0  0  0
    0.5239    1.2344    1.0285 H   0  0  0  0  0  0  0  0  0  0  0  0
    3.7427    3.3670   -2.0081 H   0  0  0  0  0  0  0  0  0  0  0  0
    2.5230    2.6464   -3.9057 H   0  0  0  0  0  0  0  0  0  0  0  0
    0.6294    1.4372   -4.9204 H   0  0  0  0  0  0  0  0  0  0  0  0
   -0.9358    0.2645   -3.4718 H   0  0  0  0  0  0  0  0  0  0  0  0
    0.9314   -0.8623    0.8670 H   0  0  0  0  0  0  0  0  0  0  0  0
   -4.7643   -0.8536    0.8232 H   0  0  0  0  0  0  0  0  0  0  0  0
   -4.5048   -1.5008   -0.5788 H   0  0  0  0  0  0  0  0  0  0  0  0
   -4.4028   -2.5705    1.0272 H   0  0  0  0  0  0  0  0  0  0  0  0
    0.4678   -3.8230    4.1922 H   0  0  0  0  0  0  0  0  0  0  0  0
   -1.1033   -3.6528    3.5304 H   0  0  0  0  0  0  0  0  0  0  0  0
  1  2  2  0
  1  6  1  0
  1 23  1  0
  2  3  1  0
  2 24  1  0
  3  4  2  0
  3 25  1  0
  4  5  1  0
  4 10  1  0
  5  6  2  0
  5  7  1  0
  6 26  1  0
  7  8  2  0
  7 27  1  0
  8  9  1  0
  8 28  1  0
  9 10  2  0
  9 29  1  0
 10 11  1  0
 11 13  1  0
 12 13  1  0
 12 19  2  0
 12 30  1  0
 13 14  2  0
 14 15  1  0
 15 16  1  0
 15 18  1  0
 16 17  2  0
 16 19  1  0
 18 31  1  0
 18 32  1  0
 18 33  1  0
 19 20  1  0
 20 21  2  0
 20 22  1  0
 22 34  1  0
 22 35  1  0
M  END
>  <template_idx>  (16) 
4m0y_ligand

>  <smiles>  (16) 
Cn1nc(Oc2cccc3ccccc23)cc(C(N)=O)c1=O

>  <qed>  (16) 
0.7981237829035515

$$$$
sample15
     RDKit          3D

 35 37  0  0  0  0  0  0  0  0999 V2000
    3.2798    3.4069   -0.3570 C   0  0  0  0  0  0  0  0  0  0  0  0
    2.7261    2.6035    0.6597 C   0  0  0  0  0  0  0  0  0  0  0  0
    1.7100    1.7021    0.3856 C   0  0  0  0  0  0  0  0  0  0  0  0
    1.2114    1.5366   -0.9315 C   0  0  0  0  0  0  0  0  0  0  0  0
    1.7571    2.3600   -1.9480 C   0  0  0  0  0  0  0  0  0  0  0  0
    2.7966    3.2783   -1.6644 C   0  0  0  0  0  0  0  0  0  0  0  0
    1.2915    2.2382   -3.2122 N   0  0  0  0  0  0  0  0  0  0  0  0
    0.2957    1.3985   -3.6505 C   0  0  0  0  0  0  0  0  0  0  0  0
   -0.2969    0.5792   -2.6653 C   0  0  0  0  0  0  0  0  0  0  0  0
    0.1619    0.6275   -1.3517 C   0  0  0  0  0  0  0  0  0  0  0  0
   -0.4598   -0.2162   -0.4007 C   0  0  0  0  0  0  0  0  0  0  0  0
    0.0750   -0.9981    0.6242 C   0  0  0  0  0  0  0  0  0  0  0  0
   -1.0300   -1.7011    1.2120 C   0  0  0  0  0  0  0  0  0  0  0  0
   -2.1684   -1.2836    0.5461 C   0  0  0  0  0  0  0  0  0  0  0  0
   -1.8279   -0.4060   -0.4467 O   0  0  0  0  0  0  0  0  0  0  0  0
   -3.5524   -1.6358    0.7708 C   0  0  0  0  0  0  0  0  0  0  0  0
   -3.8688   -2.3117    1.7647 O   0  0  0  0  0  0  0  0  0  0  0  0
   -4.4261   -1.1203   -0.1746 N   0  0  0  0  0  0  0  0  0  0  0  0
   -1.0146   -2.5366    2.2173 N   0  0  0  0  0  0  0  0  0  0  0  0
    0.1036   -3.0577    2.7243 C   0  0  0  0  0  0  0  0  0  0  0  0
    1.0717   -3.0993    2.1797 H   0  0  0  0  0  0  0  0  0  0  0  0
    0.0611   -3.6097    3.9297 C   0  0  0  0  0  0  0  0  0  0  0  0
    4.0710    4.1017   -0.1196 H   0  0  0  0  0  0  0  0  0  0  0  0
    3.1374    2.6865    1.6773 H   0  0  0  0  0  0  0  0  0  0  0  0
    1.3159    1.1259    1.1773 H   0  0  0  0  0  0  0  0  0  0  0  0
    3.1852    3.8698   -2.4472 H   0  0  0  0  0  0  0  0  0  0  0  0
    1.7901    2.7779   -3.9301 H   0  0  0  0  0  0  0  0  0  0  0  0
    0.0314    1.3717   -4.9182 O   0  0  0  0  0  0  0  0  0  0  0  0
   -1.1370   -0.0546   -2.9643 H   0  0  0  0  0  0  0  0  0  0  0  0
    1.1435   -1.1277    0.9577 H   0  0  0  0  0  0  0  0  0  0  0  0
   -5.3367   -1.4673   -0.1502 H   0  0  0  0  0  0  0  0  0  0  0  0
   -4.0643   -0.5084   -0.8857 H   0  0  0  0  0  0  0  0  0  0  0  0
   -1.9718   -2.7869    2.6007 H   0  0  0  0  0  0  0  0  0  0  0  0
    0.9220   -4.0584    4.3756 H   0  0  0  0  0  0  0  0  0  0  0  0
   -0.9833   -3.6847    4.4152 H   0  0  0  0  0  0  0  0  0  0  0  0
  1  2  2  0
  1  6  1  0
  1 23  1  0
  2  3  1  0
  2 24  1  0
  3  4  2  0
  3 25  1  0
  4  5  1  0
  4 10  1  0
  5  6  2  0
  5  7  1  0
  6 26  1  0
  7  8  1  0
  7 27  1  0
  8  9  1  0
  8 28  2  0
  9 10  2  0
  9 29  1  0
 10 11  1  0
 11 12  2  0
 11 15  1  0
 12 13  1  0
 12 30  1  0
 13 14  2  0
 13 19  1  0
 14 15  1  0
 14 16  1  0
 16 17  2  0
 16 18  1  0
 18 31  1  0
 18 32  1  0
 19 20  1  0
 19 33  1  0
 20 21  1  0
 20 22  2  3
 22 34  1  0
 22 35  1  0
M  END
>  <template_idx>  (17) 
4m0y_ligand

>  <smiles>  (17) 
C=CNc1cc(-c2cc(=O)[nH]c3ccccc23)oc1C(N)=O

>  <qed>  (17) 
0.6876945271808431

$$$$
sample16
     RDKit          3D

 35 37  0  0  0  0  0  0  0  0999 V2000
    3.2478    2.9595   -0.2048 C   0  0  0  0  0  0  0  0  0  0  0  0
    2.4642    2.3153    0.7890 C   0  0  0  0  0  0  0  0  0  0  0  0
    1.3785    1.5539    0.4295 C   0  0  0  0  0  0  0  0  0  0  0  0
    1.0492    1.3872   -0.9071 C   0  0  0  0  0  0  0  0  0  0  0  0
    1.7966    2.0916   -1.9112 C   0  0  0  0  0  0  0  0  0  0  0  0
    2.9074    2.8551   -1.5345 C   0  0  0  0  0  0  0  0  0  0  0  0
    1.4244    1.9818   -3.2705 C   0  0  0  0  0  0  0  0  0  0  0  0
    0.3591    1.1887   -3.6243 C   0  0  0  0  0  0  0  0  0  0  0  0
   -0.3538    0.4500   -2.6765 C   0  0  0  0  0  0  0  0  0  0  0  0
    0.0381    0.5435   -1.3893 C   0  0  0  0  0  0  0  0  0  0  0  0
   -0.5772   -0.2682   -0.5606 N   0  0  0  0  0  0  0  0  0  0  0  0
    0.0420   -0.8485    0.5336 N   0  0  0  0  0  0  0  0  0  0  0  0
   -1.0363   -1.5231    1.1021 C   0  0  0  0  0  0  0  0  0  0  0  0
   -2.1792   -1.1621    0.4391 C   0  0  0  0  0  0  0  0  0  0  0  0
   -1.8787   -0.4114   -0.6805 N   0  0  0  0  0  0  0  0  0  0  0  0
   -3.5580   -1.5332    0.7399 C   0  0  0  0  0  0  0  0  0  0  0  0
   -3.8205   -2.2762    1.6327 O   0  0  0  0  0  0  0  0  0  0  0  0
   -4.4840   -0.8672   -0.0662 N   0  0  0  0  0  0  0  0  0  0  0  0
   -0.9076   -2.2570    2.1376 N   0  0  0  0  0  0  0  0  0  0  0  0
    0.3522   -2.4250    2.7345 C   0  0  0  0  0  0  0  0  0  0  0  0
    1.4559   -1.8311    2.4133 O   0  0  0  0  0  0  0  0  0  0  0  0
    0.2533   -3.3173    3.7017 N   0  0  0  0  0  0  0  0  0  0  0  0
    4.1215    3.5105    0.0822 H   0  0  0  0  0  0  0  0  0  0  0  0
    2.7147    2.4595    1.8255 H   0  0  0  0  0  0  0  0  0  0  0  0
    0.8215    1.1342    1.2386 H   0  0  0  0  0  0  0  0  0  0  0  0
    3.5158    3.2862   -2.2893 H   0  0  0  0  0  0  0  0  0  0  0  0
    1.9989    2.5178   -3.9645 H   0  0  0  0  0  0  0  0  0  0  0  0
    0.0802    1.1461   -4.6648 H   0  0  0  0  0  0  0  0  0  0  0  0
   -1.1954   -0.1729   -2.9758 H   0  0  0  0  0  0  0  0  0  0  0  0
    0.9360   -0.8988    1.0572 H   0  0  0  0  0  0  0  0  0  0  0  0
   -5.4067   -1.0252    0.0973 H   0  0  0  0  0  0  0  0  0  0  0  0
   -4.0980   -0.2557   -0.7671 H   0  0  0  0  0  0  0  0  0  0  0  0
   -1.7505   -2.7434    2.4449 H   0  0  0  0  0  0  0  0  0  0  0  0
   -0.6722   -3.8435    3.8745 H   0  0  0  0  0  0  0  0  0  0  0  0
    0.9605   -3.7210    4.2138 H   0  0  0  0  0  0  0  0  0  0  0  0
  1  2  2  0
  1  6  1  0
  1 23  1  0
  2  3  1  0
  2 24  1  0
  3  4  2  0
  3 25  1  0
  4  5  1  0
  4 10  1  0
  5  6  2  0
  5  7  1  0
  6 26  1  0
  7  8  2  0
  7 27  1  0
  8  9  1  0
  8 28  1  0
  9 10  2  0
  9 29  1  0
 10 11  1  0
 11 12  1  0
 11 15  2  0
 12 13  1  0
 12 30  1  0
 13 14  2  0
 13 19  1  0
 14 15  1  0
 14 16  1  0
 16 17  2  0
 16 18  1  0
 18 31  1  0
 18 32  1  0
 19 20  1  0
 19 33  1  0
 20 21  2  0
 20 22  1  0
 22 34  1  0
 22 35  1  0
M  CHG  1  11   1
M  END
>  <template_idx>  (18) 
4m0y_ligand

>  <smiles>  (18) 
NC(=O)Nc1[nH][n+](-c2cccc3ccccc23)nc1C(N)=O

>  <qed>  (18) 
0.5226097708599223

$$$$
sample17
     RDKit          3D

 35 37  0  0  0  0  0  0  0  0999 V2000
    3.3708    3.1761   -0.3388 C   0  0  0  0  0  0  0  0  0  0  0  0
    2.6413    2.5542    0.6972 C   0  0  0  0  0  0  0  0  0  0  0  0
    1.5543    1.7362    0.3796 C   0  0  0  0  0  0  0  0  0  0  0  0
    1.1778    1.4711   -0.9550 C   0  0  0  0  0  0  0  0  0  0  0  0
    1.8877    2.1796   -2.0023 C   0  0  0  0  0  0  0  0  0  0  0  0
    3.0188    2.9877   -1.6751 C   0  0  0  0  0  0  0  0  0  0  0  0
    1.4896    2.0290   -3.3337 C   0  0  0  0  0  0  0  0  0  0  0  0
    0.3992    1.2359   -3.6650 C   0  0  0  0  0  0  0  0  0  0  0  0
   -0.2880    0.5133   -2.6823 C   0  0  0  0  0  0  0  0  0  0  0  0
    0.1100    0.6151   -1.3663 C   0  0  0  0  0  0  0  0  0  0  0  0
   -0.4969   -0.2318   -0.4081 C   0  0  0  0  0  0  0  0  0  0  0  0
    0.0316   -0.9992    0.6093 C   0  0  0  0  0  0  0  0  0  0  0  0
   -1.0851   -1.6111    1.1654 C   0  0  0  0  0  0  0  0  0  0  0  0
   -2.2068   -1.2230    0.4556 C   0  0  0  0  0  0  0  0  0  0  0  0
   -1.8295   -0.3626   -0.5272 O   0  0  0  0  0  0  0  0  0  0  0  0
   -3.5993   -1.5392    0.6247 C   0  0  0  0  0  0  0  0  0  0  0  0
   -3.9903   -2.3063    1.5047 O   0  0  0  0  0  0  0  0  0  0  0  0
   -4.3985   -0.9252   -0.3033 N   0  0  0  0  0  0  0  0  0  0  0  0
   -1.0700   -2.4357    2.2876 C   0  0  0  0  0  0  0  0  0  0  0  0
    0.0312   -2.7778    2.9472 C   0  0  0  0  0  0  0  0  0  0  0  0
    1.1081   -2.5210    2.5711 H   0  0  0  0  0  0  0  0  0  0  0  0
   -0.0462   -3.4538    4.1248 N   0  0  0  0  0  0  0  0  0  0  0  0
    4.2054    3.7935   -0.0995 H   0  0  0  0  0  0  0  0  0  0  0  0
    2.9242    2.7334    1.7350 H   0  0  0  0  0  0  0  0  0  0  0  0
    1.0004    1.3284    1.1944 H   0  0  0  0  0  0  0  0  0  0  0  0
    3.5488    3.4624   -2.4451 H   0  0  0  0  0  0  0  0  0  0  0  0
    2.0335    2.5709   -4.0676 H   0  0  0  0  0  0  0  0  0  0  0  0
    0.1095    1.1548   -4.7140 H   0  0  0  0  0  0  0  0  0  0  0  0
   -1.1249   -0.1272   -2.9826 H   0  0  0  0  0  0  0  0  0  0  0  0
    1.0573   -1.1522    0.9424 H   0  0  0  0  0  0  0  0  0  0  0  0
   -5.3446   -1.1726   -0.2793 H   0  0  0  0  0  0  0  0  0  0  0  0
   -3.9797   -0.2983   -0.9497 H   0  0  0  0  0  0  0  0  0  0  0  0
   -2.0774   -2.8196    2.6234 H   0  0  0  0  0  0  0  0  0  0  0  0
    0.7749   -3.8295    4.5325 H   0  0  0  0  0  0  0  0  0  0  0  0
   -0.9370   -3.7554    4.4001 H   0  0  0  0  0  0  0  0  0  0  0  0
  1  2  2  0
  1  6  1  0
  1 23  1  0
  2  3  1  0
  2 24  1  0
  3  4  2  0
  3 25  1  0
  4  5  1  0
  4 10  1  0
  5  6  2  0
  5  7  1  0
  6 26  1  0
  7  8  2  0
  7 27  1  0
  8  9  1  0
  8 28  1  0
  9 10  2  0
  9 29  1  0
 10 11  1  0
 11 12  2  0
 11 15  1  0
 12 13  1  0
 12 30  1  0
 13 14  2  0
 13 19  1  0
 14 15  1  0
 14 16  1  0
 16 17  2  0
 16 18  1  0
 18 31  1  0
 18 32  1  0
 19 20  2  3
 19 33  1  0
 20 21  1  0
 20 22  1  0
 22 34  1  0
 22 35  1  0
M  END
>  <template_idx>  (19) 
4m0y_ligand

>  <smiles>  (19) 
NC=Cc1cc(-c2cccc3ccccc23)oc1C(N)=O

>  <qed>  (19) 
0.7717608128018891

$$$$
sample18
     RDKit          3D

 35 37  0  0  0  0  0  0  0  0999 V2000
    3.3082    3.1322   -0.2546 C   0  0  0  0  0  0  0  0  0  0  0  0
    2.5460    2.5027    0.7587 C   0  0  0  0  0  0  0  0  0  0  0  0
    1.4642    1.7259    0.4687 C   0  0  0  0  0  0  0  0  0  0  0  0
    1.0776    1.5125   -0.8939 C   0  0  0  0  0  0  0  0  0  0  0  0
    1.8236    2.2011   -1.9192 C   0  0  0  0  0  0  0  0  0  0  0  0
    2.9402    2.9546   -1.5919 C   0  0  0  0  0  0  0  0  0  0  0  0
    1.4050    2.0825   -3.2508 C   0  0  0  0  0  0  0  0  0  0  0  0
    0.3069    1.3472   -3.6063 C   0  0  0  0  0  0  0  0  0  0  0  0
   -0.4089    0.6258   -2.6429 C   0  0  0  0  0  0  0  0  0  0  0  0
    0.0158    0.7166   -1.3415 C   0  0  0  0  0  0  0  0  0  0  0  0
   -0.5919   -0.1327   -0.4214 N   0  0  0  0  0  0  0  0  0  0  0  0
    0.0289   -0.8548    0.5228 C   0  0  0  0  0  0  0  0  0  0  0  0
   -1.0181   -1.5486    1.1343 C   0  0  0  0  0  0  0  0  0  0  0  0
   -2.1910   -1.1955    0.4691 C   0  0  0  0  0  0  0  0  0  0  0  0
   -1.9312   -0.3134   -0.4785 N   0  0  0  0  0  0  0  0  0  0  0  0
   -3.5972   -1.6502    0.6946 C   0  0  0  0  0  0  0  0  0  0  0  0
   -3.9180   -2.4257    1.5905 O   0  0  0  0  0  0  0  0  0  0  0  0
   -4.4806   -1.0837   -0.1993 N   0  0  0  0  0  0  0  0  0  0  0  0
   -0.8978   -2.4048    2.2167 C   0  0  0  0  0  0  0  0  0  0  0  0
    0.2625   -2.8121    2.7249 C   0  0  0  0  0  0  0  0  0  0  0  0
    1.3012   -2.6640    2.2728 H   0  0  0  0  0  0  0  0  0  0  0  0
    0.2115   -3.4907    3.9070 N   0  0  0  0  0  0  0  0  0  0  0  0
    4.2011    3.6705   -0.0153 H   0  0  0  0  0  0  0  0  0  0  0  0
    2.8992    2.6049    1.7727 H   0  0  0  0  0  0  0  0  0  0  0  0
    0.9443    1.2842    1.3058 H   0  0  0  0  0  0  0  0  0  0  0  0
    3.4660    3.4647   -2.3593 H   0  0  0  0  0  0  0  0  0  0  0  0
    1.9369    2.6709   -3.9762 H   0  0  0  0  0  0  0  0  0  0  0  0
    0.0063    1.3152   -4.6521 H   0  0  0  0  0  0  0  0  0  0  0  0
   -1.2614    0.0226   -2.9246 H   0  0  0  0  0  0  0  0  0  0  0  0
    1.1205   -0.9034    0.7189 H   0  0  0  0  0  0  0  0  0  0  0  0
   -5.3678   -1.4237   -0.2006 H   0  0  0  0  0  0  0  0  0  0  0  0
   -4.1032   -0.3938   -0.8688 H   0  0  0  0  0  0  0  0  0  0  0  0
   -1.8407   -2.7838    2.6072 H   0  0  0  0  0  0  0  0  0  0  0  0
    1.0098   -3.9192    4.2360 H   0  0  0  0  0  0  0  0  0  0  0  0
   -0.6679   -3.8339    4.1965 H   0  0  0  0  0  0  0  0  0  0  0  0
  1  2  2  0
  1  6  1  0
  1 23  1  0
  2  3  1  0
  2 24  1  0
  3  4  2  0
  3 25  1  0
  4  5  1  0
  4 10  1  0
  5  6  2  0
  5  7  1  0
  6 26  1  0
  7  8  2  0
  7 27  1  0
  8  9  1  0
  8 28  1  0
  9 10  2  0
  9 29  1  0
 10 11  1  0
 11 12  1  0
 11 15  1  0
 12 13  2  0
 12 30  1  0
 13 14  1  0
 13 19  1  0
 14 15  2  0
 14 16  1  0
 16 17  2  0
 16 18  1  0
 18 31  1  0
 18 32  1  0
 19 20  2  3
 19 33  1  0
 20 21  1  0
 20 22  1  0
 22 34  1  0
 22 35  1  0
M  END
>  <template_idx>  (20) 
4m0y_ligand

>  <smiles>  (20) 
NC=Cc1cn(-c2cccc3ccccc23)nc1C(N)=O

>  <qed>  (20) 
0.7683297215784499

$$$$
sample19
     RDKit          3D

 35 38  0  0  0  0  0  0  0  0999 V2000
    3.3850    3.2955   -0.3316 C   0  0  0  0  0  0  0  0  0  0  0  0
    2.5239    2.7684    0.6652 C   0  0  0  0  0  0  0  0  0  0  0  0
    1.4289    2.0432    0.3284 C   0  0  0  0  0  0  0  0  0  0  0  0
    1.1694    1.7321   -1.0254 C   0  0  0  0  0  0  0  0  0  0  0  0
    2.0115    2.3053   -2.0399 C   0  0  0  0  0  0  0  0  0  0  0  0
    3.1236    3.0653   -1.6741 C   0  0  0  0  0  0  0  0  0  0  0  0
    1.6930    2.0949   -3.4033 C   0  0  0  0  0  0  0  0  0  0  0  0
    0.6023    1.3219   -3.7744 C   0  0  0  0  0  0  0  0  0  0  0  0
   -0.1892    0.7128   -2.8051 C   0  0  0  0  0  0  0  0  0  0  0  0
    0.1296    0.8702   -1.4807 C   0  0  0  0  0  0  0  0  0  0  0  0
   -0.5642    0.0751   -0.5490 C   0  0  0  0  0  0  0  0  0  0  0  0
   -0.0816   -0.6923    0.4982 C   0  0  0  0  0  0  0  0  0  0  0  0
   -1.2099   -1.3504    0.9403 C   0  0  0  0  0  0  0  0  0  0  0  0
   -2.3472   -0.9284    0.1641 C   0  0  0  0  0  0  0  0  0  0  0  0
   -1.9428   -0.0482   -0.7601 O   0  0  0  0  0  0  0  0  0  0  0  0
   -3.7873   -2.1997    1.3341 C   0  0  0  0  0  0  0  0  0  0  0  0
   -2.8829   -3.4099    2.8731 H   0  0  0  0  0  0  0  0  0  0  0  0
   -3.5858   -1.3231    0.3427 C   0  0  0  0  0  0  0  0  0  0  0  0
   -1.4066   -2.3113    1.8866 C   0  0  0  0  0  0  0  0  0  0  0  0
   -0.1786   -2.7776    2.5878 C   0  0  0  0  0  0  0  0  0  0  0  0
    1.0091   -2.4537    2.2817 O   0  0  0  0  0  0  0  0  0  0  0  0
   -0.3908   -3.6159    3.6091 N   0  0  0  0  0  0  0  0  0  0  0  0
    4.2643    3.8504   -0.0619 H   0  0  0  0  0  0  0  0  0  0  0  0
    2.7861    2.9342    1.6981 H   0  0  0  0  0  0  0  0  0  0  0  0
    0.7882    1.7170    1.1150 H   0  0  0  0  0  0  0  0  0  0  0  0
    3.7301    3.4497   -2.4328 H   0  0  0  0  0  0  0  0  0  0  0  0
    2.3298    2.5258   -4.1233 H   0  0  0  0  0  0  0  0  0  0  0  0
    0.3816    1.1654   -4.7977 H   0  0  0  0  0  0  0  0  0  0  0  0
   -1.0487    0.1344   -3.1085 H   0  0  0  0  0  0  0  0  0  0  0  0
    0.9396   -0.7923    0.8683 H   0  0  0  0  0  0  0  0  0  0  0  0
   -4.7527   -2.5249    1.5207 H   0  0  0  0  0  0  0  0  0  0  0  0
   -4.4322   -0.9361   -0.3409 H   0  0  0  0  0  0  0  0  0  0  0  0
   -2.6998   -2.7266    2.0983 C   0  0  0  0  0  0  0  0  0  0  0  0
    0.4458   -3.9412    4.0545 H   0  0  0  0  0  0  0  0  0  0  0  0
   -1.2413   -4.0300    3.8426 H   0  0  0  0  0  0  0  0  0  0  0  0
  1  2  2  0
  1  6  1  0
  1 23  1  0
  2  3  1  0
  2 24  1  0
  3  4  2  0
  3 25  1  0
  4  5  1  0
  4 10  1  0
  5  6  2  0
  5  7  1  0
  6 26  1  0
  7  8  2  0
  7 27  1  0
  8  9  1  0
  8 28  1  0
  9 10  2  0
  9 29  1  0
 10 11  1  0
 11 12  2  0
 11 15  1  0
 12 13  1  0
 12 30  1  0
 13 14  2  0
 13 19  1  0
 14 15  1  0
 14 18  1  0
 16 18  2  0
 16 31  1  0
 16 33  1  0
 17 33  1  0
 18 32  1  0
 19 20  1  0
 19 33  2  0
 20 21  2  0
 20 22  1  0
 22 34  1  0
 22 35  1  0
M  END
>  <template_idx>  (21) 
4m0y_ligand

>  <smiles>  (21) 
NC(=O)c1cccc2oc(-c3cccc4ccccc34)cc12

>  <qed>  (21) 
0.5954966791936622

$$$$
sample20
     RDKit          3D

 35 38  0  0  0  0  0  0  0  0999 V2000
    3.1665    3.0374   -0.1185 C   0  0  0  0  0  0  0  0  0  0  0  0
    2.2494    2.5258    0.8487 C   0  0  0  0  0  0  0  0  0  0  0  0
    1.1582    1.7680    0.4334 C   0  0  0  0  0  0  0  0  0  0  0  0
    0.9780    1.4680   -0.9036 C   0  0  0  0  0  0  0  0  0  0  0  0
    1.8619    2.0356   -1.8925 C   0  0  0  0  0  0  0  0  0  0  0  0
    2.9900    2.8052   -1.4714 C   0  0  0  0  0  0  0  0  0  0  0  0
    1.6363    1.8010   -3.2519 C   0  0  0  0  0  0  0  0  0  0  0  0
    0.5694    1.0525   -3.6766 C   0  0  0  0  0  0  0  0  0  0  0  0
   -0.3144    0.4575   -2.7438 C   0  0  0  0  0  0  0  0  0  0  0  0
   -0.0598    0.6298   -1.4183 C   0  0  0  0  0  0  0  0  0  0  0  0
   -0.8054   -0.1621   -0.5235 C   0  0  0  0  0  0  0  0  0  0  0  0
   -0.1275   -0.9018    0.5285 C   0  0  0  0  0  0  0  0  0  0  0  0
   -1.2334   -1.5175    1.1649 C   0  0  0  0  0  0  0  0  0  0  0  0
   -2.4501   -1.2021    0.4902 N   0  0  0  0  0  0  0  0  0  0  0  0
   -2.1224   -0.3348   -0.5477 N   0  0  0  0  0  0  0  0  0  0  0  0
   -3.6600   -1.7015    0.6989 C   0  0  0  0  0  0  0  0  0  0  0  0
   -3.8706   -2.5836    1.4677 O   0  0  0  0  0  0  0  0  0  0  0  0
   -4.5233   -1.0394   -0.1071 N   0  0  0  0  0  0  0  0  0  0  0  0
   -1.0391   -2.2562    2.2679 C   0  0  0  0  0  0  0  0  0  0  0  0
    0.3139   -2.4225    2.6057 C   0  0  0  0  0  0  0  0  0  0  0  0
    1.3177   -1.8335    1.9058 N   0  0  0  0  0  0  0  0  0  0  0  0
    0.6740   -3.2200    3.6870 N   0  0  0  0  0  0  0  0  0  0  0  0
    4.0019    3.6470    0.1918 H   0  0  0  0  0  0  0  0  0  0  0  0
    2.4345    2.7363    1.8832 H   0  0  0  0  0  0  0  0  0  0  0  0
    0.4852    1.4574    1.1967 H   0  0  0  0  0  0  0  0  0  0  0  0
    3.6318    3.2260   -2.2009 H   0  0  0  0  0  0  0  0  0  0  0  0
    2.2863    2.2693   -3.9561 H   0  0  0  0  0  0  0  0  0  0  0  0
    0.3858    0.9590   -4.7464 H   0  0  0  0  0  0  0  0  0  0  0  0
   -1.1603   -0.1072   -3.1070 H   0  0  0  0  0  0  0  0  0  0  0  0
    1.1048   -1.1178    0.9132 N   0  0  0  0  0  0  0  0  0  0  0  0
   -5.4832   -1.3045   -0.0076 H   0  0  0  0  0  0  0  0  0  0  0  0
   -4.1477   -0.3615   -0.7230 H   0  0  0  0  0  0  0  0  0  0  0  0
   -1.8482   -2.7214    2.8660 H   0  0  0  0  0  0  0  0  0  0  0  0
    1.8423   -3.2791    3.9272 O   0  0  0  0  0  0  0  0  0  0  0  0
   -0.2424   -3.8090    4.3193 O   0  0  0  0  0  0  0  0  0  0  0  0
  1  2  2  0
  1  6  1  0
  1 23  1  0
  2  3  1  0
  2 24  1  0
  3  4  2  0
  3 25  1  0
  4  5  1  0
  4 10  1  0
  5  6  2  0
  5  7  1  0
  6 26  1  0
  7  8  2  0
  7 27  1  0
  8  9  1  0
  8 28  1  0
  9 10  2  0
  9 29  1  0
 10 11  1  0
 11 12  1  0
 11 15  2  0
 12 13  2  0
 12 30  1  0
 13 14  1  0
 13 19  1  0
 14 15  1  0
 14 16  1  0
 16 17  2  0
 16 18  1  0
 18 31  1  0
 18 32  1  0
 19 20  2  0
 19 33  1  0
 20 21  1  0
 20 22  1  0
 21 30  2  0
 22 34  1  0
 22 35  2  0
M  CHG  2  22   1  34  -1
M  END
>  <template_idx>  (22) 
4m0y_ligand

>  <smiles>  (22) 
NC(=O)n1nc(-c2cccc3ccccc23)c2nnc([N+](=O)[O-])cc21

>  <qed>  (22) 
0.4424998874839269

$$$$
